LTspice 24.1.9 for Windows
Circuit: Z:\home\reverseflux\git\soil-moisture-sensor\ltspice_simulation\differential_amplifier.net
Start Time: Mon Jun 16 21:37:27 2025
solver = Normal
Maximum thread count: 16
tnom = 27
temp = 27
method = modified trap
Direct Newton iteration for .op point succeeded.
Total elapsed time: 0.236 seconds.

Files loaded:
Z:\home\reverseflux\git\soil-moisture-sensor\ltspice_simulation\differential_amplifier.net
Z:\home\reverseflux\git\soil-moisture-sensor\ltspice_simulation\models\BCM847BS.lib

