LTspice 24.1.9 for Windows
Circuit: Z:\home\reverseflux\git\soil-moisture-sensor\ltspice_simulation\mosfet_differential_oscillator_sim.net
Start Time: Thu Jun 26 00:44:42 2025
solver = Normal
Maximum thread count: 16
tnom = 27
temp = 27
method = modified trap
Per .tran options, skipping operating point for transient analysis.
Warning: Simulation tolerance relaxed to achieve convergence from 2.1761109327830852e-09 to 2.1761109327930854e-09 seconds.
Warning: Simulation tolerance relaxed to achieve convergence from 2.1761109327930854e-09 to 2.1761109328030856e-09 seconds.
Warning: Simulation tolerance relaxed to achieve convergence from 2.1761109328030856e-09 to 2.1761109328130858e-09 seconds.
Warning: Simulation tolerance relaxed to achieve convergence from 2.1761109328130858e-09 to 2.1761109328230860e-09 seconds.
Warning: Simulation tolerance relaxed to achieve convergence from 2.1761109328230860e-09 to 2.1761109328330862e-09 seconds.
Warning: Simulation tolerance relaxed to achieve convergence from 2.1761109328330862e-09 to 2.1761109328430864e-09 seconds.
Warning: Simulation tolerance relaxed to achieve convergence from 2.1761109328430864e-09 to 2.1761109328530866e-09 seconds.
Warning: Simulation tolerance relaxed to achieve convergence from 2.1761109328530866e-09 to 2.1761109328630868e-09 seconds.
Warning: Simulation tolerance relaxed to achieve convergence from 2.1761109328630868e-09 to 2.1761109328730870e-09 seconds.
Warning: Simulation tolerance relaxed to achieve convergence from 2.1761109328730870e-09 to 2.1761109328830872e-09 seconds.
Warning: Simulation tolerance relaxed to achieve convergence from 2.1761109328830872e-09 to 2.1761109328930874e-09 seconds.
Warning: Simulation tolerance relaxed to achieve convergence from 2.1761109328930874e-09 to 2.1761109329030876e-09 seconds.
Warning: Simulation tolerance relaxed to achieve convergence from 2.1761109329030876e-09 to 2.1761109329130878e-09 seconds.
Warning: Simulation tolerance relaxed to achieve convergence from 2.1761109329130878e-09 to 2.1761109329230880e-09 seconds.
Warning: Simulation tolerance relaxed to achieve convergence from 2.1761109329230880e-09 to 2.1761109329330882e-09 seconds.
Warning: Simulation tolerance relaxed to achieve convergence from 2.1761109329330882e-09 to 2.1761109329430884e-09 seconds.
Warning: Simulation tolerance relaxed to achieve convergence from 2.1761109329430884e-09 to 2.1761109329530886e-09 seconds.
Warning: Simulation tolerance relaxed to achieve convergence from 2.1761109329530886e-09 to 2.1761109329630888e-09 seconds.
Warning: Simulation tolerance relaxed to achieve convergence from 2.1761109329630888e-09 to 2.1761109329730890e-09 seconds.
Warning: Simulation tolerance relaxed to achieve convergence from 2.1761109329730890e-09 to 2.1761109329830892e-09 seconds.
Warning: Simulation tolerance relaxed to achieve convergence from 2.1761109329830892e-09 to 2.1761109329930894e-09 seconds.
Warning: Simulation tolerance relaxed to achieve convergence from 2.1761109329930894e-09 to 2.1761109330030896e-09 seconds.
Warning: Simulation tolerance relaxed to achieve convergence from 2.1761109330030896e-09 to 2.1761109330130898e-09 seconds.
Warning: Simulation tolerance relaxed to achieve convergence from 2.1761109330130898e-09 to 2.1761109330230900e-09 seconds.
Warning: Simulation tolerance relaxed to achieve convergence from 2.1761109330230900e-09 to 2.1761109330330902e-09 seconds.
Warning: Simulation tolerance relaxed to achieve convergence from 2.1761109330330902e-09 to 2.1761109330430904e-09 seconds.
Warning: Simulation tolerance relaxed to achieve convergence from 2.1761109330430904e-09 to 2.1761109330530906e-09 seconds.
Warning: Simulation tolerance relaxed to achieve convergence from 2.1761109330530906e-09 to 2.1761109330630908e-09 seconds.
Warning: Simulation tolerance relaxed to achieve convergence from 2.1761109330630908e-09 to 2.1761109330730910e-09 seconds.
Warning: Simulation tolerance relaxed to achieve convergence from 2.1761109330730910e-09 to 2.1761109330830912e-09 seconds.
Warning: Simulation tolerance relaxed to achieve convergence from 2.1761109330830912e-09 to 2.1761109330930914e-09 seconds.
Warning: Simulation tolerance relaxed to achieve convergence from 2.1761109330930914e-09 to 2.1761109331030916e-09 seconds.
Warning: Simulation tolerance relaxed to achieve convergence from 2.1761109331030916e-09 to 2.1761109331130918e-09 seconds.
Warning: Simulation tolerance relaxed to achieve convergence from 2.1761109331130918e-09 to 2.1761109331230920e-09 seconds.
Warning: Simulation tolerance relaxed to achieve convergence from 2.1761109331230920e-09 to 2.1761109331330922e-09 seconds.
Warning: Simulation tolerance relaxed to achieve convergence from 2.1761109331330922e-09 to 2.1761109331430924e-09 seconds.
Warning: Simulation tolerance relaxed to achieve convergence from 2.1761109331430924e-09 to 2.1761109331530926e-09 seconds.
Warning: Simulation tolerance relaxed to achieve convergence from 2.1761109331530926e-09 to 2.1761109331630928e-09 seconds.
Warning: Simulation tolerance relaxed to achieve convergence from 2.1761109331630928e-09 to 2.1761109331730930e-09 seconds.
Warning: Simulation tolerance relaxed to achieve convergence from 2.1761109331730930e-09 to 2.1761109331830932e-09 seconds.
Warning: Simulation tolerance relaxed to achieve convergence from 2.1761109331830932e-09 to 2.1761109331930934e-09 seconds.
Warning: Simulation tolerance relaxed to achieve convergence from 2.1761109331930934e-09 to 2.1761109332030936e-09 seconds.
Warning: Simulation tolerance relaxed to achieve convergence from 2.1761109332030936e-09 to 2.1761109332130938e-09 seconds.
Warning: Simulation tolerance relaxed to achieve convergence from 2.1761109332130938e-09 to 2.1761109332230940e-09 seconds.
Warning: Simulation tolerance relaxed to achieve convergence from 2.1761109332230940e-09 to 2.1761109332330942e-09 seconds.
Warning: Simulation tolerance relaxed to achieve convergence from 2.1761109332330942e-09 to 2.1761109332430944e-09 seconds.
Warning: Simulation tolerance relaxed to achieve convergence from 2.1761109332430944e-09 to 2.1761109332530946e-09 seconds.
Warning: Simulation tolerance relaxed to achieve convergence from 2.1761109332530946e-09 to 2.1761109332630948e-09 seconds.
Warning: Simulation tolerance relaxed to achieve convergence from 2.1761109332630948e-09 to 2.1761109332730950e-09 seconds.
Warning: Simulation tolerance relaxed to achieve convergence from 2.1761109332730950e-09 to 2.1761109332830952e-09 seconds.
Warning: Simulation tolerance relaxed to achieve convergence from 2.1761109332830952e-09 to 2.1761109332930954e-09 seconds.
Warning: Simulation tolerance relaxed to achieve convergence from 2.1761109332930954e-09 to 2.1761109333030956e-09 seconds.
Warning: Simulation tolerance relaxed to achieve convergence from 2.1761109333030956e-09 to 2.1761109333130958e-09 seconds.
Warning: Simulation tolerance relaxed to achieve convergence from 2.1761109333230960e-09 to 2.1761109333330962e-09 seconds.
Warning: Simulation tolerance relaxed to achieve convergence from 2.1761109333330962e-09 to 2.1761109333430964e-09 seconds.
Warning: Simulation tolerance relaxed to achieve convergence from 2.1761109333430964e-09 to 2.1761109333530966e-09 seconds.
Warning: Simulation tolerance relaxed to achieve convergence from 2.1761109333530966e-09 to 2.1761109333630968e-09 seconds.
Warning: Simulation tolerance relaxed to achieve convergence from 2.1761109333630968e-09 to 2.1761109333730970e-09 seconds.
Warning: Simulation tolerance relaxed to achieve convergence from 2.1761109333730970e-09 to 2.1761109333830972e-09 seconds.
Warning: Simulation tolerance relaxed to achieve convergence from 2.1761109333830972e-09 to 2.1761109333930974e-09 seconds.
Warning: Simulation tolerance relaxed to achieve convergence from 2.1761109333930974e-09 to 2.1761109334030976e-09 seconds.
Warning: Simulation tolerance relaxed to achieve convergence from 2.1761109334030976e-09 to 2.1761109334130978e-09 seconds.
Warning: Simulation tolerance relaxed to achieve convergence from 2.1761109334130978e-09 to 2.1761109334230980e-09 seconds.
Warning: Simulation tolerance relaxed to achieve convergence from 2.1761109334230980e-09 to 2.1761109334330982e-09 seconds.
Warning: Simulation tolerance relaxed to achieve convergence from 2.1761109334330982e-09 to 2.1761109334430984e-09 seconds.
Warning: Simulation tolerance relaxed to achieve convergence from 2.1761109334430984e-09 to 2.1761109334530986e-09 seconds.
Warning: Simulation tolerance relaxed to achieve convergence from 2.1761109334530986e-09 to 2.1761109334630988e-09 seconds.
Warning: Simulation tolerance relaxed to achieve convergence from 2.1761109334630988e-09 to 2.1761109334730990e-09 seconds.
Warning: Simulation tolerance relaxed to achieve convergence from 2.1761109334730990e-09 to 2.1761109334830992e-09 seconds.
Warning: Simulation tolerance relaxed to achieve convergence from 2.1761109334830992e-09 to 2.1761109334930994e-09 seconds.
Warning: Simulation tolerance relaxed to achieve convergence from 2.1761109334930994e-09 to 2.1761109335030996e-09 seconds.
Warning: Simulation tolerance relaxed to achieve convergence from 2.1761109335030996e-09 to 2.1761109335130998e-09 seconds.
Warning: Simulation tolerance relaxed to achieve convergence from 2.1761109335130998e-09 to 2.1761109335231000e-09 seconds.
Warning: Simulation tolerance relaxed to achieve convergence from 2.1761109335231000e-09 to 2.1761109335331002e-09 seconds.
Warning: Simulation tolerance relaxed to achieve convergence from 2.1761109335331002e-09 to 2.1761109335431004e-09 seconds.
Warning: Simulation tolerance relaxed to achieve convergence from 2.1761109335431004e-09 to 2.1761109335531006e-09 seconds.
Warning: Simulation tolerance relaxed to achieve convergence from 2.1761109335531006e-09 to 2.1761109335631008e-09 seconds.
Warning: Simulation tolerance relaxed to achieve convergence from 2.1761109335631008e-09 to 2.1761109335731010e-09 seconds.
Warning: Simulation tolerance relaxed to achieve convergence from 2.1761109335731010e-09 to 2.1761109335831012e-09 seconds.
Warning: Simulation tolerance relaxed to achieve convergence from 2.1761109335831012e-09 to 2.1761109335931014e-09 seconds.
Warning: Simulation tolerance relaxed to achieve convergence from 2.1761109335931014e-09 to 2.1761109336031016e-09 seconds.
Warning: Simulation tolerance relaxed to achieve convergence from 2.1761109336031016e-09 to 2.1761109336131018e-09 seconds.
Warning: Simulation tolerance relaxed to achieve convergence from 2.1761109336131018e-09 to 2.1761109336231020e-09 seconds.
Warning: Simulation tolerance relaxed to achieve convergence from 2.1761109336231020e-09 to 2.1761109336331022e-09 seconds.
Warning: Simulation tolerance relaxed to achieve convergence from 2.1761109336331022e-09 to 2.1761109336431024e-09 seconds.
Warning: Simulation tolerance relaxed to achieve convergence from 2.1761109336431024e-09 to 2.1761109336531026e-09 seconds.
Warning: Simulation tolerance relaxed to achieve convergence from 2.1761109336531026e-09 to 2.1761109336631028e-09 seconds.
Warning: Simulation tolerance relaxed to achieve convergence from 2.1761109336631028e-09 to 2.1761109336731030e-09 seconds.
Warning: Simulation tolerance relaxed to achieve convergence from 2.1761109336731030e-09 to 2.1761109336831032e-09 seconds.
Warning: Simulation tolerance relaxed to achieve convergence from 2.1761109336831032e-09 to 2.1761109336931034e-09 seconds.
Warning: Simulation tolerance relaxed to achieve convergence from 2.1761109336931034e-09 to 2.1761109337031036e-09 seconds.
Warning: Simulation tolerance relaxed to achieve convergence from 2.1761109337231036e-09 to 2.1761109337331038e-09 seconds.
Warning: Simulation tolerance relaxed to achieve convergence from 2.1761109337331038e-09 to 2.1761109337431040e-09 seconds.
Warning: Simulation tolerance relaxed to achieve convergence from 2.1761109337431040e-09 to 2.1761109337531042e-09 seconds.
Warning: Simulation tolerance relaxed to achieve convergence from 2.1761109337531042e-09 to 2.1761109337631044e-09 seconds.
Warning: Simulation tolerance relaxed to achieve convergence from 2.1761109337631044e-09 to 2.1761109337731046e-09 seconds.
Warning: Simulation tolerance relaxed to achieve convergence from 2.1761109337731046e-09 to 2.1761109337831048e-09 seconds.
Warning: Simulation tolerance relaxed to achieve convergence from 2.1761109337831048e-09 to 2.1761109337931050e-09 seconds.
Warning: Simulation tolerance relaxed to achieve convergence from 2.1761109337931050e-09 to 2.1761109338031052e-09 seconds.
Warning: Simulation tolerance relaxed to achieve convergence from 2.1761109338031052e-09 to 2.1761109338131054e-09 seconds.
Warning: Simulation tolerance relaxed to achieve convergence from 2.1761109338131054e-09 to 2.1761109338231056e-09 seconds.
Warning: Simulation tolerance relaxed to achieve convergence from 2.1761109338231056e-09 to 2.1761109338331058e-09 seconds.
Warning: Simulation tolerance relaxed to achieve convergence from 2.1761109338331058e-09 to 2.1761109338431060e-09 seconds.
Warning: Simulation tolerance relaxed to achieve convergence from 2.1761109338431060e-09 to 2.1761109338531062e-09 seconds.
Warning: Simulation tolerance relaxed to achieve convergence from 2.1761109338531062e-09 to 2.1761109338631064e-09 seconds.
Warning: Simulation tolerance relaxed to achieve convergence from 2.1761109338631064e-09 to 2.1761109338731066e-09 seconds.
Warning: Simulation tolerance relaxed to achieve convergence from 2.1761109338731066e-09 to 2.1761109338831068e-09 seconds.
Warning: Simulation tolerance relaxed to achieve convergence from 2.1761109338831068e-09 to 2.1761109338931070e-09 seconds.
Warning: Simulation tolerance relaxed to achieve convergence from 2.1761109339131070e-09 to 2.1761109339231072e-09 seconds.
Warning: Simulation tolerance relaxed to achieve convergence from 2.1761109339231072e-09 to 2.1761109339331074e-09 seconds.
Warning: Simulation tolerance relaxed to achieve convergence from 2.1761109339331074e-09 to 2.1761109339431076e-09 seconds.
Warning: Simulation tolerance relaxed to achieve convergence from 2.1761109339431076e-09 to 2.1761109339531078e-09 seconds.
Warning: Simulation tolerance relaxed to achieve convergence from 2.1761109339531078e-09 to 2.1761109339631080e-09 seconds.
Warning: Simulation tolerance relaxed to achieve convergence from 2.1761109339631080e-09 to 2.1761109339731082e-09 seconds.
Warning: Simulation tolerance relaxed to achieve convergence from 2.1761109339731082e-09 to 2.1761109339831084e-09 seconds.
Warning: Simulation tolerance relaxed to achieve convergence from 2.1761109339831084e-09 to 2.1761109339931086e-09 seconds.
Warning: Simulation tolerance relaxed to achieve convergence from 2.1761109339931086e-09 to 2.1761109340031088e-09 seconds.
Warning: Simulation tolerance relaxed to achieve convergence from 2.1761109340031088e-09 to 2.1761109340131090e-09 seconds.
Warning: Simulation tolerance relaxed to achieve convergence from 2.1761109340131090e-09 to 2.1761109340231092e-09 seconds.
Warning: Simulation tolerance relaxed to achieve convergence from 2.1761109340231092e-09 to 2.1761109340331094e-09 seconds.
Warning: Simulation tolerance relaxed to achieve convergence from 2.1761109340331094e-09 to 2.1761109340431096e-09 seconds.
Warning: Simulation tolerance relaxed to achieve convergence from 2.1761109340431096e-09 to 2.1761109340531098e-09 seconds.
Warning: Simulation tolerance relaxed to achieve convergence from 2.1761109340531098e-09 to 2.1761109340631100e-09 seconds.
Warning: Simulation tolerance relaxed to achieve convergence from 2.1761109340631100e-09 to 2.1761109340731102e-09 seconds.
Warning: Simulation tolerance relaxed to achieve convergence from 2.1761109340731102e-09 to 2.1761109340831104e-09 seconds.
Warning: Simulation tolerance relaxed to achieve convergence from 2.1761109340831104e-09 to 2.1761109340931106e-09 seconds.
Warning: Simulation tolerance relaxed to achieve convergence from 2.1761109340931106e-09 to 2.1761109341031108e-09 seconds.
Warning: Simulation tolerance relaxed to achieve convergence from 2.1761109341031108e-09 to 2.1761109341131110e-09 seconds.
Warning: Simulation tolerance relaxed to achieve convergence from 2.1761109341131110e-09 to 2.1761109341231112e-09 seconds.
Warning: Simulation tolerance relaxed to achieve convergence from 2.1761109341231112e-09 to 2.1761109341331114e-09 seconds.
Warning: Simulation tolerance relaxed to achieve convergence from 2.1761109341331114e-09 to 2.1761109341431116e-09 seconds.
Warning: Simulation tolerance relaxed to achieve convergence from 2.1761109341431116e-09 to 2.1761109341531118e-09 seconds.
Warning: Simulation tolerance relaxed to achieve convergence from 2.1761109341531118e-09 to 2.1761109341631120e-09 seconds.
Warning: Simulation tolerance relaxed to achieve convergence from 2.1761109341631120e-09 to 2.1761109341731122e-09 seconds.
Warning: Simulation tolerance relaxed to achieve convergence from 2.1761109341731122e-09 to 2.1761109341831124e-09 seconds.
Warning: Simulation tolerance relaxed to achieve convergence from 2.1761109341831124e-09 to 2.1761109341931126e-09 seconds.
Warning: Simulation tolerance relaxed to achieve convergence from 2.1761109341931126e-09 to 2.1761109342031128e-09 seconds.
Warning: Simulation tolerance relaxed to achieve convergence from 2.1761109342031128e-09 to 2.1761109342131130e-09 seconds.
Warning: Simulation tolerance relaxed to achieve convergence from 2.1761109342131130e-09 to 2.1761109342231132e-09 seconds.
Warning: Simulation tolerance relaxed to achieve convergence from 2.1761109342231132e-09 to 2.1761109342331134e-09 seconds.
Warning: Simulation tolerance relaxed to achieve convergence from 2.1761109342331134e-09 to 2.1761109342431136e-09 seconds.
Warning: Simulation tolerance relaxed to achieve convergence from 2.1761109342431136e-09 to 2.1761109342531138e-09 seconds.
Warning: Simulation tolerance relaxed to achieve convergence from 2.1761109342531138e-09 to 2.1761109342631140e-09 seconds.
Warning: Simulation tolerance relaxed to achieve convergence from 2.1761109342631140e-09 to 2.1761109342731142e-09 seconds.
Warning: Simulation tolerance relaxed to achieve convergence from 2.1761109342731142e-09 to 2.1761109342831144e-09 seconds.
Warning: Simulation tolerance relaxed to achieve convergence from 2.1761109342831144e-09 to 2.1761109342931146e-09 seconds.
Warning: Simulation tolerance relaxed to achieve convergence from 2.1761109342931146e-09 to 2.1761109343031148e-09 seconds.
Warning: Simulation tolerance relaxed to achieve convergence from 2.1761109343031148e-09 to 2.1761109343131150e-09 seconds.
Warning: Simulation tolerance relaxed to achieve convergence from 2.1761109343131150e-09 to 2.1761109343231152e-09 seconds.
Warning: Simulation tolerance relaxed to achieve convergence from 2.1761109343231152e-09 to 2.1761109343331154e-09 seconds.
Warning: Simulation tolerance relaxed to achieve convergence from 2.1761109343331154e-09 to 2.1761109343431156e-09 seconds.
Warning: Simulation tolerance relaxed to achieve convergence from 2.1761109343431156e-09 to 2.1761109343531158e-09 seconds.
Warning: Simulation tolerance relaxed to achieve convergence from 2.1761109343531158e-09 to 2.1761109343631160e-09 seconds.
Warning: Simulation tolerance relaxed to achieve convergence from 2.1761109343631160e-09 to 2.1761109343731162e-09 seconds.
Warning: Simulation tolerance relaxed to achieve convergence from 2.1761109343731162e-09 to 2.1761109343831164e-09 seconds.
Warning: Simulation tolerance relaxed to achieve convergence from 2.1761109343831164e-09 to 2.1761109343931166e-09 seconds.
Warning: Simulation tolerance relaxed to achieve convergence from 2.1761109343931166e-09 to 2.1761109344031168e-09 seconds.
Warning: Simulation tolerance relaxed to achieve convergence from 2.1761109344031168e-09 to 2.1761109344131170e-09 seconds.
Warning: Simulation tolerance relaxed to achieve convergence from 2.1761109344131170e-09 to 2.1761109344231172e-09 seconds.
Warning: Simulation tolerance relaxed to achieve convergence from 2.1761109344231172e-09 to 2.1761109344331174e-09 seconds.
Warning: Simulation tolerance relaxed to achieve convergence from 2.1761109344331174e-09 to 2.1761109344431176e-09 seconds.
Warning: Simulation tolerance relaxed to achieve convergence from 2.1761109344431176e-09 to 2.1761109344531178e-09 seconds.
Warning: Simulation tolerance relaxed to achieve convergence from 2.1761109344531178e-09 to 2.1761109344631180e-09 seconds.
Warning: Simulation tolerance relaxed to achieve convergence from 2.1761109344631180e-09 to 2.1761109344731182e-09 seconds.
Warning: Simulation tolerance relaxed to achieve convergence from 2.1761109344731182e-09 to 2.1761109344831184e-09 seconds.
Warning: Simulation tolerance relaxed to achieve convergence from 2.1761109345031184e-09 to 2.1761109345131186e-09 seconds.
Warning: Simulation tolerance relaxed to achieve convergence from 2.1761109345131186e-09 to 2.1761109345231188e-09 seconds.
Warning: Simulation tolerance relaxed to achieve convergence from 2.1761109345231188e-09 to 2.1761109345331190e-09 seconds.
Warning: Simulation tolerance relaxed to achieve convergence from 2.1761109345331190e-09 to 2.1761109345431192e-09 seconds.
Warning: Simulation tolerance relaxed to achieve convergence from 2.1761109345431192e-09 to 2.1761109345531194e-09 seconds.
Warning: Simulation tolerance relaxed to achieve convergence from 2.1761109345531194e-09 to 2.1761109345631196e-09 seconds.
Warning: Simulation tolerance relaxed to achieve convergence from 2.1761109345731198e-09 to 2.1761109345831200e-09 seconds.
Warning: Simulation tolerance relaxed to achieve convergence from 2.1761109345831200e-09 to 2.1761109345931202e-09 seconds.
Warning: Simulation tolerance relaxed to achieve convergence from 2.1761109345931202e-09 to 2.1761109346031204e-09 seconds.
Warning: Simulation tolerance relaxed to achieve convergence from 2.1761109346031204e-09 to 2.1761109346131206e-09 seconds.
Warning: Simulation tolerance relaxed to achieve convergence from 2.1761109346131206e-09 to 2.1761109346231208e-09 seconds.
Warning: Simulation tolerance relaxed to achieve convergence from 2.1761109346231208e-09 to 2.1761109346331210e-09 seconds.
Warning: Simulation tolerance relaxed to achieve convergence from 2.1761109346331210e-09 to 2.1761109346431212e-09 seconds.
Warning: Simulation tolerance relaxed to achieve convergence from 2.1761109346431212e-09 to 2.1761109346531214e-09 seconds.
Warning: Simulation tolerance relaxed to achieve convergence from 2.1761109346531214e-09 to 2.1761109346631216e-09 seconds.
Warning: Simulation tolerance relaxed to achieve convergence from 2.1761109346631216e-09 to 2.1761109346731218e-09 seconds.
Warning: Simulation tolerance relaxed to achieve convergence from 2.1761109346731218e-09 to 2.1761109346831220e-09 seconds.
Warning: Simulation tolerance relaxed to achieve convergence from 2.1761109346831220e-09 to 2.1761109346931222e-09 seconds.
Warning: Simulation tolerance relaxed to achieve convergence from 2.1761109346931222e-09 to 2.1761109347031224e-09 seconds.
Warning: Simulation tolerance relaxed to achieve convergence from 2.1761109347031224e-09 to 2.1761109347131226e-09 seconds.
Warning: Simulation tolerance relaxed to achieve convergence from 2.1761109347131226e-09 to 2.1761109347231228e-09 seconds.
Warning: Simulation tolerance relaxed to achieve convergence from 2.1761109347231228e-09 to 2.1761109347331230e-09 seconds.
Warning: Simulation tolerance relaxed to achieve convergence from 2.1761109347331230e-09 to 2.1761109347431232e-09 seconds.
Warning: Simulation tolerance relaxed to achieve convergence from 2.1761109347531234e-09 to 2.1761109347631236e-09 seconds.
Warning: Simulation tolerance relaxed to achieve convergence from 2.1761109347631236e-09 to 2.1761109347731238e-09 seconds.
Warning: Simulation tolerance relaxed to achieve convergence from 2.1761109347731238e-09 to 2.1761109347831240e-09 seconds.
Warning: Simulation tolerance relaxed to achieve convergence from 2.1761109347831240e-09 to 2.1761109347931242e-09 seconds.
Warning: Simulation tolerance relaxed to achieve convergence from 2.1761109347931242e-09 to 2.1761109348031244e-09 seconds.
Warning: Simulation tolerance relaxed to achieve convergence from 2.1761109348031244e-09 to 2.1761109348131246e-09 seconds.
Warning: Simulation tolerance relaxed to achieve convergence from 2.1761109348131246e-09 to 2.1761109348231248e-09 seconds.
Warning: Simulation tolerance relaxed to achieve convergence from 2.1761109348231248e-09 to 2.1761109348331250e-09 seconds.
Warning: Simulation tolerance relaxed to achieve convergence from 2.1761109348331250e-09 to 2.1761109348431252e-09 seconds.
Warning: Simulation tolerance relaxed to achieve convergence from 2.1761109348431252e-09 to 2.1761109348531254e-09 seconds.
Warning: Simulation tolerance relaxed to achieve convergence from 2.1761109348531254e-09 to 2.1761109348631256e-09 seconds.
Warning: Simulation tolerance relaxed to achieve convergence from 2.1761109348631256e-09 to 2.1761109348731258e-09 seconds.
Warning: Simulation tolerance relaxed to achieve convergence from 2.1761109348731258e-09 to 2.1761109348831260e-09 seconds.
Warning: Simulation tolerance relaxed to achieve convergence from 2.1761109348831260e-09 to 2.1761109348931262e-09 seconds.
Warning: Simulation tolerance relaxed to achieve convergence from 2.1761109348931262e-09 to 2.1761109349031264e-09 seconds.
Warning: Simulation tolerance relaxed to achieve convergence from 2.1761109349031264e-09 to 2.1761109349131266e-09 seconds.
Warning: Simulation tolerance relaxed to achieve convergence from 2.1761109349131266e-09 to 2.1761109349231268e-09 seconds.
Warning: Simulation tolerance relaxed to achieve convergence from 2.1761109349231268e-09 to 2.1761109349331270e-09 seconds.
Warning: Simulation tolerance relaxed to achieve convergence from 2.1761109349331270e-09 to 2.1761109349431272e-09 seconds.
Warning: Simulation tolerance relaxed to achieve convergence from 2.1761109349531274e-09 to 2.1761109349631276e-09 seconds.
Warning: Simulation tolerance relaxed to achieve convergence from 2.1761109349631276e-09 to 2.1761109349731278e-09 seconds.
Warning: Simulation tolerance relaxed to achieve convergence from 2.1761109349731278e-09 to 2.1761109349831280e-09 seconds.
Warning: Simulation tolerance relaxed to achieve convergence from 2.1761109349831280e-09 to 2.1761109349931282e-09 seconds.
Warning: Simulation tolerance relaxed to achieve convergence from 2.1761109349931282e-09 to 2.1761109350031284e-09 seconds.
Warning: Simulation tolerance relaxed to achieve convergence from 2.1761109350031284e-09 to 2.1761109350131286e-09 seconds.
Warning: Simulation tolerance relaxed to achieve convergence from 2.1761109350131286e-09 to 2.1761109350231288e-09 seconds.
Warning: Simulation tolerance relaxed to achieve convergence from 2.1761109350231288e-09 to 2.1761109350331290e-09 seconds.
Warning: Simulation tolerance relaxed to achieve convergence from 2.1761109350331290e-09 to 2.1761109350431292e-09 seconds.
Warning: Simulation tolerance relaxed to achieve convergence from 2.1761109350431292e-09 to 2.1761109350531294e-09 seconds.
Warning: Simulation tolerance relaxed to achieve convergence from 2.1761109350531294e-09 to 2.1761109350631296e-09 seconds.
Warning: Simulation tolerance relaxed to achieve convergence from 2.1761109350631296e-09 to 2.1761109350731298e-09 seconds.
Warning: Simulation tolerance relaxed to achieve convergence from 2.1761109350731298e-09 to 2.1761109350831300e-09 seconds.
Warning: Simulation tolerance relaxed to achieve convergence from 2.1761109350831300e-09 to 2.1761109350931302e-09 seconds.
Warning: Simulation tolerance relaxed to achieve convergence from 2.1761109350931302e-09 to 2.1761109351031304e-09 seconds.
Warning: Simulation tolerance relaxed to achieve convergence from 2.1761109351031304e-09 to 2.1761109351131306e-09 seconds.
Warning: Simulation tolerance relaxed to achieve convergence from 2.1761109351131306e-09 to 2.1761109351231308e-09 seconds.
Warning: Simulation tolerance relaxed to achieve convergence from 2.1761109351231308e-09 to 2.1761109351331310e-09 seconds.
Warning: Simulation tolerance relaxed to achieve convergence from 2.1761109351331310e-09 to 2.1761109351431312e-09 seconds.
Warning: Simulation tolerance relaxed to achieve convergence from 2.1761109351431312e-09 to 2.1761109351531314e-09 seconds.
Warning: Simulation tolerance relaxed to achieve convergence from 2.1761109351531314e-09 to 2.1761109351631316e-09 seconds.
Warning: Simulation tolerance relaxed to achieve convergence from 2.1761109351631316e-09 to 2.1761109351731318e-09 seconds.
Warning: Simulation tolerance relaxed to achieve convergence from 2.1761109351731318e-09 to 2.1761109351831320e-09 seconds.
Warning: Simulation tolerance relaxed to achieve convergence from 2.1761109351831320e-09 to 2.1761109351931322e-09 seconds.
Warning: Simulation tolerance relaxed to achieve convergence from 2.1761109351931322e-09 to 2.1761109352031324e-09 seconds.
Warning: Simulation tolerance relaxed to achieve convergence from 2.1761109352031324e-09 to 2.1761109352131326e-09 seconds.
Warning: Simulation tolerance relaxed to achieve convergence from 2.1761109352131326e-09 to 2.1761109352231328e-09 seconds.
Warning: Simulation tolerance relaxed to achieve convergence from 2.1761109352231328e-09 to 2.1761109352331330e-09 seconds.
Warning: Simulation tolerance relaxed to achieve convergence from 2.1761109352331330e-09 to 2.1761109352431332e-09 seconds.
Warning: Simulation tolerance relaxed to achieve convergence from 2.1761109352431332e-09 to 2.1761109352531334e-09 seconds.
Warning: Simulation tolerance relaxed to achieve convergence from 2.1761109352531334e-09 to 2.1761109352631336e-09 seconds.
Warning: Simulation tolerance relaxed to achieve convergence from 2.1761109352631336e-09 to 2.1761109352731338e-09 seconds.
Warning: Simulation tolerance relaxed to achieve convergence from 2.1761109352731338e-09 to 2.1761109352831340e-09 seconds.
Warning: Simulation tolerance relaxed to achieve convergence from 2.1761109352831340e-09 to 2.1761109352931342e-09 seconds.
Warning: Simulation tolerance relaxed to achieve convergence from 2.1761109352931342e-09 to 2.1761109353031344e-09 seconds.
Warning: Simulation tolerance relaxed to achieve convergence from 2.1761109353131346e-09 to 2.1761109353231348e-09 seconds.
Warning: Simulation tolerance relaxed to achieve convergence from 2.1761109353231348e-09 to 2.1761109353331350e-09 seconds.
Warning: Simulation tolerance relaxed to achieve convergence from 2.1761109353331350e-09 to 2.1761109353431352e-09 seconds.
Warning: Simulation tolerance relaxed to achieve convergence from 2.1761109353431352e-09 to 2.1761109353531354e-09 seconds.
Warning: Simulation tolerance relaxed to achieve convergence from 2.1761109353531354e-09 to 2.1761109353631356e-09 seconds.
Warning: Simulation tolerance relaxed to achieve convergence from 2.1761109353631356e-09 to 2.1761109353731358e-09 seconds.
Warning: Simulation tolerance relaxed to achieve convergence from 2.1761109353731358e-09 to 2.1761109353831360e-09 seconds.
Warning: Simulation tolerance relaxed to achieve convergence from 2.1761109353831360e-09 to 2.1761109353931362e-09 seconds.
Warning: Simulation tolerance relaxed to achieve convergence from 2.1761109353931362e-09 to 2.1761109354031364e-09 seconds.
Warning: Simulation tolerance relaxed to achieve convergence from 2.1761109354031364e-09 to 2.1761109354131366e-09 seconds.
Warning: Simulation tolerance relaxed to achieve convergence from 2.1761109354131366e-09 to 2.1761109354231368e-09 seconds.
Warning: Simulation tolerance relaxed to achieve convergence from 2.1761109354231368e-09 to 2.1761109354331370e-09 seconds.
Warning: Simulation tolerance relaxed to achieve convergence from 2.1761109354331370e-09 to 2.1761109354431372e-09 seconds.
Warning: Simulation tolerance relaxed to achieve convergence from 2.1761109354431372e-09 to 2.1761109354531374e-09 seconds.
Warning: Simulation tolerance relaxed to achieve convergence from 2.1761109354531374e-09 to 2.1761109354631376e-09 seconds.
Warning: Simulation tolerance relaxed to achieve convergence from 2.1761109354631376e-09 to 2.1761109354731378e-09 seconds.
Warning: Simulation tolerance relaxed to achieve convergence from 2.1761109354731378e-09 to 2.1761109354831380e-09 seconds.
Warning: Simulation tolerance relaxed to achieve convergence from 2.1761109354831380e-09 to 2.1761109354931382e-09 seconds.
Warning: Simulation tolerance relaxed to achieve convergence from 2.1761109354931382e-09 to 2.1761109355031384e-09 seconds.
Warning: Simulation tolerance relaxed to achieve convergence from 2.1761109355031384e-09 to 2.1761109355131386e-09 seconds.
Warning: Simulation tolerance relaxed to achieve convergence from 2.1761109355131386e-09 to 2.1761109355231388e-09 seconds.
Warning: Simulation tolerance relaxed to achieve convergence from 2.1761109355231388e-09 to 2.1761109355331390e-09 seconds.
Warning: Simulation tolerance relaxed to achieve convergence from 2.1761109355331390e-09 to 2.1761109355431392e-09 seconds.
Warning: Simulation tolerance relaxed to achieve convergence from 2.1761109355431392e-09 to 2.1761109355531394e-09 seconds.
Warning: Simulation tolerance relaxed to achieve convergence from 2.1761109355531394e-09 to 2.1761109355631396e-09 seconds.
Warning: Simulation tolerance relaxed to achieve convergence from 2.1761109355631396e-09 to 2.1761109355731398e-09 seconds.
Warning: Simulation tolerance relaxed to achieve convergence from 2.1761109355731398e-09 to 2.1761109355831400e-09 seconds.
Warning: Simulation tolerance relaxed to achieve convergence from 2.1761109355831400e-09 to 2.1761109355931402e-09 seconds.
Warning: Simulation tolerance relaxed to achieve convergence from 2.1761109355931402e-09 to 2.1761109356031404e-09 seconds.
Warning: Simulation tolerance relaxed to achieve convergence from 2.1761109356131406e-09 to 2.1761109356231408e-09 seconds.
Warning: Simulation tolerance relaxed to achieve convergence from 2.1761109356231408e-09 to 2.1761109356331410e-09 seconds.
Warning: Simulation tolerance relaxed to achieve convergence from 2.1761109356331410e-09 to 2.1761109356431412e-09 seconds.
Warning: Simulation tolerance relaxed to achieve convergence from 2.1761109356431412e-09 to 2.1761109356531414e-09 seconds.
Warning: Simulation tolerance relaxed to achieve convergence from 2.1761109356531414e-09 to 2.1761109356631416e-09 seconds.
Warning: Simulation tolerance relaxed to achieve convergence from 2.1761109356631416e-09 to 2.1761109356731418e-09 seconds.
Warning: Simulation tolerance relaxed to achieve convergence from 2.1761109356731418e-09 to 2.1761109356831420e-09 seconds.
Warning: Simulation tolerance relaxed to achieve convergence from 2.1761109356831420e-09 to 2.1761109356931422e-09 seconds.
Warning: Simulation tolerance relaxed to achieve convergence from 2.1761109356931422e-09 to 2.1761109357031424e-09 seconds.
Warning: Simulation tolerance relaxed to achieve convergence from 2.1761109357031424e-09 to 2.1761109357131426e-09 seconds.
Warning: Simulation tolerance relaxed to achieve convergence from 2.1761109357131426e-09 to 2.1761109357231428e-09 seconds.
Warning: Simulation tolerance relaxed to achieve convergence from 2.1761109357231428e-09 to 2.1761109357331430e-09 seconds.
Warning: Simulation tolerance relaxed to achieve convergence from 2.1761109357331430e-09 to 2.1761109357431432e-09 seconds.
Warning: Simulation tolerance relaxed to achieve convergence from 2.1761109357431432e-09 to 2.1761109357531434e-09 seconds.
Warning: Simulation tolerance relaxed to achieve convergence from 2.1761109357531434e-09 to 2.1761109357631436e-09 seconds.
Warning: Simulation tolerance relaxed to achieve convergence from 2.1761109357731438e-09 to 2.1761109357831440e-09 seconds.
Warning: Simulation tolerance relaxed to achieve convergence from 2.1761109357831440e-09 to 2.1761109357931442e-09 seconds.
Warning: Simulation tolerance relaxed to achieve convergence from 2.1761109357931442e-09 to 2.1761109358031444e-09 seconds.
Warning: Simulation tolerance relaxed to achieve convergence from 2.1761109358031444e-09 to 2.1761109358131446e-09 seconds.
Warning: Simulation tolerance relaxed to achieve convergence from 2.1761109358131446e-09 to 2.1761109358231448e-09 seconds.
Warning: Simulation tolerance relaxed to achieve convergence from 2.1761109358231448e-09 to 2.1761109358331450e-09 seconds.
Warning: Simulation tolerance relaxed to achieve convergence from 2.1761109358331450e-09 to 2.1761109358431452e-09 seconds.
Warning: Simulation tolerance relaxed to achieve convergence from 2.1761109358431452e-09 to 2.1761109358531454e-09 seconds.
Warning: Simulation tolerance relaxed to achieve convergence from 2.1761109358531454e-09 to 2.1761109358631456e-09 seconds.
Warning: Simulation tolerance relaxed to achieve convergence from 2.1761109358631456e-09 to 2.1761109358731458e-09 seconds.
Warning: Simulation tolerance relaxed to achieve convergence from 2.1761109358731458e-09 to 2.1761109358831460e-09 seconds.
Warning: Simulation tolerance relaxed to achieve convergence from 2.1761109358831460e-09 to 2.1761109358931462e-09 seconds.
Warning: Simulation tolerance relaxed to achieve convergence from 2.1761109358931462e-09 to 2.1761109359031464e-09 seconds.
Warning: Simulation tolerance relaxed to achieve convergence from 2.1761109359031464e-09 to 2.1761109359131466e-09 seconds.
Warning: Simulation tolerance relaxed to achieve convergence from 2.1761109359131466e-09 to 2.1761109359231468e-09 seconds.
Warning: Simulation tolerance relaxed to achieve convergence from 2.1761109359231468e-09 to 2.1761109359331470e-09 seconds.
Warning: Simulation tolerance relaxed to achieve convergence from 2.1761109359331470e-09 to 2.1761109359431472e-09 seconds.
Warning: Simulation tolerance relaxed to achieve convergence from 2.1761109359431472e-09 to 2.1761109359531474e-09 seconds.
Warning: Simulation tolerance relaxed to achieve convergence from 2.1761109359531474e-09 to 2.1761109359631476e-09 seconds.
Warning: Simulation tolerance relaxed to achieve convergence from 2.1761109359631476e-09 to 2.1761109359731478e-09 seconds.
Warning: Simulation tolerance relaxed to achieve convergence from 2.1761109359731478e-09 to 2.1761109359831480e-09 seconds.
Warning: Simulation tolerance relaxed to achieve convergence from 2.1761109359831480e-09 to 2.1761109359931482e-09 seconds.
Warning: Simulation tolerance relaxed to achieve convergence from 2.1761109359931482e-09 to 2.1761109360031484e-09 seconds.
Warning: Simulation tolerance relaxed to achieve convergence from 2.1761109360031484e-09 to 2.1761109360131486e-09 seconds.
Warning: Simulation tolerance relaxed to achieve convergence from 2.1761109360131486e-09 to 2.1761109360231488e-09 seconds.
Warning: Simulation tolerance relaxed to achieve convergence from 2.1761109360231488e-09 to 2.1761109360331490e-09 seconds.
Warning: Simulation tolerance relaxed to achieve convergence from 2.1761109360331490e-09 to 2.1761109360431492e-09 seconds.
Warning: Simulation tolerance relaxed to achieve convergence from 2.1761109360431492e-09 to 2.1761109360531494e-09 seconds.
Warning: Simulation tolerance relaxed to achieve convergence from 2.1761109360531494e-09 to 2.1761109360631496e-09 seconds.
Warning: Simulation tolerance relaxed to achieve convergence from 2.1761109360731498e-09 to 2.1761109360831500e-09 seconds.
Warning: Simulation tolerance relaxed to achieve convergence from 2.1761109360831500e-09 to 2.1761109360931502e-09 seconds.
Warning: Simulation tolerance relaxed to achieve convergence from 2.1761109360931502e-09 to 2.1761109361031504e-09 seconds.
Warning: Simulation tolerance relaxed to achieve convergence from 2.1761109361031504e-09 to 2.1761109361131506e-09 seconds.
Warning: Simulation tolerance relaxed to achieve convergence from 2.1761109361131506e-09 to 2.1761109361231508e-09 seconds.
Warning: Simulation tolerance relaxed to achieve convergence from 2.1761109361231508e-09 to 2.1761109361331510e-09 seconds.
Warning: Simulation tolerance relaxed to achieve convergence from 2.1761109361331510e-09 to 2.1761109361431512e-09 seconds.
Warning: Simulation tolerance relaxed to achieve convergence from 2.1761109361431512e-09 to 2.1761109361531514e-09 seconds.
Warning: Simulation tolerance relaxed to achieve convergence from 2.1761109361531514e-09 to 2.1761109361631516e-09 seconds.
Warning: Simulation tolerance relaxed to achieve convergence from 2.1761109361631516e-09 to 2.1761109361731518e-09 seconds.
Warning: Simulation tolerance relaxed to achieve convergence from 2.1761109361731518e-09 to 2.1761109361831520e-09 seconds.
Warning: Simulation tolerance relaxed to achieve convergence from 2.1761109361831520e-09 to 2.1761109361931522e-09 seconds.
Warning: Simulation tolerance relaxed to achieve convergence from 2.1761109361931522e-09 to 2.1761109362031524e-09 seconds.
Warning: Simulation tolerance relaxed to achieve convergence from 2.1761109362031524e-09 to 2.1761109362131526e-09 seconds.
Warning: Simulation tolerance relaxed to achieve convergence from 2.1761109362131526e-09 to 2.1761109362231528e-09 seconds.
Warning: Simulation tolerance relaxed to achieve convergence from 2.1761109362231528e-09 to 2.1761109362331530e-09 seconds.
Warning: Simulation tolerance relaxed to achieve convergence from 2.1761109362331530e-09 to 2.1761109362431532e-09 seconds.
Warning: Simulation tolerance relaxed to achieve convergence from 2.1761109362431532e-09 to 2.1761109362531534e-09 seconds.
Warning: Simulation tolerance relaxed to achieve convergence from 2.1761109362531534e-09 to 2.1761109362631536e-09 seconds.
Warning: Simulation tolerance relaxed to achieve convergence from 2.1761109362631536e-09 to 2.1761109362731538e-09 seconds.
Warning: Simulation tolerance relaxed to achieve convergence from 2.1761109362731538e-09 to 2.1761109362831540e-09 seconds.
Warning: Simulation tolerance relaxed to achieve convergence from 2.1761109362831540e-09 to 2.1761109362931542e-09 seconds.
Warning: Simulation tolerance relaxed to achieve convergence from 2.1761109362931542e-09 to 2.1761109363031544e-09 seconds.
Warning: Simulation tolerance relaxed to achieve convergence from 2.1761109363031544e-09 to 2.1761109363131546e-09 seconds.
Warning: Simulation tolerance relaxed to achieve convergence from 2.1761109363131546e-09 to 2.1761109363231548e-09 seconds.
Warning: Simulation tolerance relaxed to achieve convergence from 2.1761109363231548e-09 to 2.1761109363331550e-09 seconds.
Warning: Simulation tolerance relaxed to achieve convergence from 2.1761109363331550e-09 to 2.1761109363431552e-09 seconds.
Warning: Simulation tolerance relaxed to achieve convergence from 2.1761109363431552e-09 to 2.1761109363531554e-09 seconds.
Warning: Simulation tolerance relaxed to achieve convergence from 2.1761109363531554e-09 to 2.1761109363631556e-09 seconds.
Warning: Simulation tolerance relaxed to achieve convergence from 2.1761109363631556e-09 to 2.1761109363731558e-09 seconds.
Warning: Simulation tolerance relaxed to achieve convergence from 2.1761109363731558e-09 to 2.1761109363831560e-09 seconds.
Warning: Simulation tolerance relaxed to achieve convergence from 2.1761109363831560e-09 to 2.1761109363931562e-09 seconds.
Warning: Simulation tolerance relaxed to achieve convergence from 2.1761109363931562e-09 to 2.1761109364031564e-09 seconds.
Warning: Simulation tolerance relaxed to achieve convergence from 2.1761109364031564e-09 to 2.1761109364131566e-09 seconds.
Warning: Simulation tolerance relaxed to achieve convergence from 2.1761109364131566e-09 to 2.1761109364231568e-09 seconds.
Warning: Simulation tolerance relaxed to achieve convergence from 2.1761109364331570e-09 to 2.1761109364431572e-09 seconds.
Warning: Simulation tolerance relaxed to achieve convergence from 2.1761109364531574e-09 to 2.1761109364631576e-09 seconds.
Warning: Simulation tolerance relaxed to achieve convergence from 2.1761109364631576e-09 to 2.1761109364731578e-09 seconds.
Warning: Simulation tolerance relaxed to achieve convergence from 2.1761109364731578e-09 to 2.1761109364831580e-09 seconds.
Warning: Simulation tolerance relaxed to achieve convergence from 2.1761109364831580e-09 to 2.1761109364931582e-09 seconds.
Warning: Simulation tolerance relaxed to achieve convergence from 2.1761109364931582e-09 to 2.1761109365031584e-09 seconds.
Warning: Simulation tolerance relaxed to achieve convergence from 2.1761109365031584e-09 to 2.1761109365131586e-09 seconds.
Warning: Simulation tolerance relaxed to achieve convergence from 2.1761109365131586e-09 to 2.1761109365231588e-09 seconds.
Warning: Simulation tolerance relaxed to achieve convergence from 2.1761109365231588e-09 to 2.1761109365331590e-09 seconds.
Warning: Simulation tolerance relaxed to achieve convergence from 2.1761109365331590e-09 to 2.1761109365431592e-09 seconds.
Warning: Simulation tolerance relaxed to achieve convergence from 2.1761109365431592e-09 to 2.1761109365531594e-09 seconds.
Warning: Simulation tolerance relaxed to achieve convergence from 2.1761109365531594e-09 to 2.1761109365631596e-09 seconds.
Warning: Simulation tolerance relaxed to achieve convergence from 2.1761109365631596e-09 to 2.1761109365731598e-09 seconds.
Warning: Simulation tolerance relaxed to achieve convergence from 2.1761109365731598e-09 to 2.1761109365831600e-09 seconds.
Warning: Simulation tolerance relaxed to achieve convergence from 2.1761109365831600e-09 to 2.1761109365931602e-09 seconds.
Warning: Simulation tolerance relaxed to achieve convergence from 2.1761109365931602e-09 to 2.1761109366031604e-09 seconds.
Warning: Simulation tolerance relaxed to achieve convergence from 2.1761109366031604e-09 to 2.1761109366131606e-09 seconds.
Warning: Simulation tolerance relaxed to achieve convergence from 2.1761109366131606e-09 to 2.1761109366231608e-09 seconds.
Warning: Simulation tolerance relaxed to achieve convergence from 2.1761109366231608e-09 to 2.1761109366331610e-09 seconds.
Warning: Simulation tolerance relaxed to achieve convergence from 2.1761109366531610e-09 to 2.1761109366631612e-09 seconds.
Warning: Simulation tolerance relaxed to achieve convergence from 2.1761109366631612e-09 to 2.1761109366731614e-09 seconds.
Warning: Simulation tolerance relaxed to achieve convergence from 2.1761109366731614e-09 to 2.1761109366831616e-09 seconds.
Warning: Simulation tolerance relaxed to achieve convergence from 2.1761109366831616e-09 to 2.1761109366931618e-09 seconds.
Warning: Simulation tolerance relaxed to achieve convergence from 2.1761109366931618e-09 to 2.1761109367031620e-09 seconds.
Warning: Simulation tolerance relaxed to achieve convergence from 2.1761109367031620e-09 to 2.1761109367131622e-09 seconds.
Warning: Simulation tolerance relaxed to achieve convergence from 2.1761109367131622e-09 to 2.1761109367231624e-09 seconds.
Warning: Simulation tolerance relaxed to achieve convergence from 2.1761109367231624e-09 to 2.1761109367331626e-09 seconds.
Warning: Simulation tolerance relaxed to achieve convergence from 2.1761109367331626e-09 to 2.1761109367431628e-09 seconds.
Warning: Simulation tolerance relaxed to achieve convergence from 2.1761109367431628e-09 to 2.1761109367531630e-09 seconds.
Warning: Simulation tolerance relaxed to achieve convergence from 2.1761109367531630e-09 to 2.1761109367631632e-09 seconds.
Warning: Simulation tolerance relaxed to achieve convergence from 2.1761109367631632e-09 to 2.1761109367731634e-09 seconds.
Warning: Simulation tolerance relaxed to achieve convergence from 2.1761109367731634e-09 to 2.1761109367831636e-09 seconds.
Warning: Simulation tolerance relaxed to achieve convergence from 2.1761109367831636e-09 to 2.1761109367931638e-09 seconds.
Warning: Simulation tolerance relaxed to achieve convergence from 2.1761109367931638e-09 to 2.1761109368031640e-09 seconds.
Warning: Simulation tolerance relaxed to achieve convergence from 2.1761109368031640e-09 to 2.1761109368131642e-09 seconds.
Warning: Simulation tolerance relaxed to achieve convergence from 2.1761109368131642e-09 to 2.1761109368231644e-09 seconds.
Warning: Simulation tolerance relaxed to achieve convergence from 2.1761109368231644e-09 to 2.1761109368331646e-09 seconds.
Warning: Simulation tolerance relaxed to achieve convergence from 2.1761109368331646e-09 to 2.1761109368431648e-09 seconds.
Warning: Simulation tolerance relaxed to achieve convergence from 2.1761109368431648e-09 to 2.1761109368531650e-09 seconds.
Warning: Simulation tolerance relaxed to achieve convergence from 2.1761109368531650e-09 to 2.1761109368631652e-09 seconds.
Warning: Simulation tolerance relaxed to achieve convergence from 2.1761109368631652e-09 to 2.1761109368731654e-09 seconds.
Warning: Simulation tolerance relaxed to achieve convergence from 2.1761109368731654e-09 to 2.1761109368831656e-09 seconds.
Warning: Simulation tolerance relaxed to achieve convergence from 2.1761109368831656e-09 to 2.1761109368931658e-09 seconds.
Warning: Simulation tolerance relaxed to achieve convergence from 2.1761109368931658e-09 to 2.1761109369031660e-09 seconds.
Warning: Simulation tolerance relaxed to achieve convergence from 2.1761109369031660e-09 to 2.1761109369131662e-09 seconds.
Warning: Simulation tolerance relaxed to achieve convergence from 2.1761109369131662e-09 to 2.1761109369231664e-09 seconds.
Warning: Simulation tolerance relaxed to achieve convergence from 2.1761109369231664e-09 to 2.1761109369331666e-09 seconds.
Warning: Simulation tolerance relaxed to achieve convergence from 2.1761109369331666e-09 to 2.1761109369431668e-09 seconds.
Warning: Simulation tolerance relaxed to achieve convergence from 2.1761109369431668e-09 to 2.1761109369531670e-09 seconds.
Warning: Simulation tolerance relaxed to achieve convergence from 2.1761109369531670e-09 to 2.1761109369631672e-09 seconds.
Warning: Simulation tolerance relaxed to achieve convergence from 2.1761109369631672e-09 to 2.1761109369731674e-09 seconds.
Warning: Simulation tolerance relaxed to achieve convergence from 2.1761109369731674e-09 to 2.1761109369831676e-09 seconds.
Warning: Simulation tolerance relaxed to achieve convergence from 2.1761109369831676e-09 to 2.1761109369931678e-09 seconds.
Warning: Simulation tolerance relaxed to achieve convergence from 2.1761109369931678e-09 to 2.1761109370031680e-09 seconds.
Warning: Simulation tolerance relaxed to achieve convergence from 2.1761109370031680e-09 to 2.1761109370131682e-09 seconds.
Warning: Simulation tolerance relaxed to achieve convergence from 2.1761109370131682e-09 to 2.1761109370231684e-09 seconds.
Warning: Simulation tolerance relaxed to achieve convergence from 2.1761109370231684e-09 to 2.1761109370331686e-09 seconds.
Warning: Simulation tolerance relaxed to achieve convergence from 2.1761109370331686e-09 to 2.1761109370431688e-09 seconds.
Warning: Simulation tolerance relaxed to achieve convergence from 2.1761109370431688e-09 to 2.1761109370531690e-09 seconds.
Warning: Simulation tolerance relaxed to achieve convergence from 2.1761109370531690e-09 to 2.1761109370631692e-09 seconds.
Warning: Simulation tolerance relaxed to achieve convergence from 2.1761109370631692e-09 to 2.1761109370731694e-09 seconds.
Warning: Simulation tolerance relaxed to achieve convergence from 2.1761109370731694e-09 to 2.1761109370831696e-09 seconds.
Warning: Simulation tolerance relaxed to achieve convergence from 2.1761109370831696e-09 to 2.1761109370931698e-09 seconds.
Warning: Simulation tolerance relaxed to achieve convergence from 2.1761109370931698e-09 to 2.1761109371031700e-09 seconds.
Warning: Simulation tolerance relaxed to achieve convergence from 2.1761109371031700e-09 to 2.1761109371131702e-09 seconds.
Warning: Simulation tolerance relaxed to achieve convergence from 2.1761109371131702e-09 to 2.1761109371231704e-09 seconds.
Warning: Simulation tolerance relaxed to achieve convergence from 2.1761109371331706e-09 to 2.1761109371431708e-09 seconds.
Warning: Simulation tolerance relaxed to achieve convergence from 2.1761109371431708e-09 to 2.1761109371531710e-09 seconds.
Warning: Simulation tolerance relaxed to achieve convergence from 2.1761109371531710e-09 to 2.1761109371631712e-09 seconds.
Warning: Simulation tolerance relaxed to achieve convergence from 2.1761109371631712e-09 to 2.1761109371731714e-09 seconds.
Warning: Simulation tolerance relaxed to achieve convergence from 2.1761109371731714e-09 to 2.1761109371831716e-09 seconds.
Warning: Simulation tolerance relaxed to achieve convergence from 2.1761109371831716e-09 to 2.1761109371931718e-09 seconds.
Warning: Simulation tolerance relaxed to achieve convergence from 2.1761109371931718e-09 to 2.1761109372031720e-09 seconds.
Warning: Simulation tolerance relaxed to achieve convergence from 2.1761109372031720e-09 to 2.1761109372131722e-09 seconds.
Warning: Simulation tolerance relaxed to achieve convergence from 2.1761109372131722e-09 to 2.1761109372231724e-09 seconds.
Warning: Simulation tolerance relaxed to achieve convergence from 2.1761109372231724e-09 to 2.1761109372331726e-09 seconds.
Warning: Simulation tolerance relaxed to achieve convergence from 2.1761109372331726e-09 to 2.1761109372431728e-09 seconds.
Warning: Simulation tolerance relaxed to achieve convergence from 2.1761109372531730e-09 to 2.1761109372631732e-09 seconds.
Warning: Simulation tolerance relaxed to achieve convergence from 2.1761109372631732e-09 to 2.1761109372731734e-09 seconds.
Warning: Simulation tolerance relaxed to achieve convergence from 2.1761109372731734e-09 to 2.1761109372831736e-09 seconds.
Warning: Simulation tolerance relaxed to achieve convergence from 2.1761109372831736e-09 to 2.1761109372931738e-09 seconds.
Warning: Simulation tolerance relaxed to achieve convergence from 2.1761109372931738e-09 to 2.1761109373031740e-09 seconds.
Warning: Simulation tolerance relaxed to achieve convergence from 2.1761109373031740e-09 to 2.1761109373131742e-09 seconds.
Warning: Simulation tolerance relaxed to achieve convergence from 2.1761109373131742e-09 to 2.1761109373231744e-09 seconds.
Warning: Simulation tolerance relaxed to achieve convergence from 2.1761109373231744e-09 to 2.1761109373331746e-09 seconds.
Warning: Simulation tolerance relaxed to achieve convergence from 2.1761109373331746e-09 to 2.1761109373431748e-09 seconds.
Warning: Simulation tolerance relaxed to achieve convergence from 2.1761109373431748e-09 to 2.1761109373531750e-09 seconds.
Warning: Simulation tolerance relaxed to achieve convergence from 2.1761109373531750e-09 to 2.1761109373631752e-09 seconds.
Warning: Simulation tolerance relaxed to achieve convergence from 2.1761109373631752e-09 to 2.1761109373731754e-09 seconds.
Warning: Simulation tolerance relaxed to achieve convergence from 2.1761109373731754e-09 to 2.1761109373831756e-09 seconds.
Warning: Simulation tolerance relaxed to achieve convergence from 2.1761109373831756e-09 to 2.1761109373931758e-09 seconds.
Warning: Simulation tolerance relaxed to achieve convergence from 2.1761109373931758e-09 to 2.1761109374031760e-09 seconds.
Warning: Simulation tolerance relaxed to achieve convergence from 2.1761109374031760e-09 to 2.1761109374131762e-09 seconds.
Warning: Simulation tolerance relaxed to achieve convergence from 2.1761109374131762e-09 to 2.1761109374231764e-09 seconds.
Warning: Simulation tolerance relaxed to achieve convergence from 2.1761109374231764e-09 to 2.1761109374331766e-09 seconds.
Warning: Simulation tolerance relaxed to achieve convergence from 2.1761109374331766e-09 to 2.1761109374431768e-09 seconds.
Warning: Simulation tolerance relaxed to achieve convergence from 2.1761109374431768e-09 to 2.1761109374531770e-09 seconds.
Warning: Simulation tolerance relaxed to achieve convergence from 2.1761109374531770e-09 to 2.1761109374631772e-09 seconds.
Warning: Simulation tolerance relaxed to achieve convergence from 2.1761109374631772e-09 to 2.1761109374731774e-09 seconds.
Warning: Simulation tolerance relaxed to achieve convergence from 2.1761109374831776e-09 to 2.1761109374931778e-09 seconds.
Warning: Simulation tolerance relaxed to achieve convergence from 2.1761109374931778e-09 to 2.1761109375031780e-09 seconds.
Warning: Simulation tolerance relaxed to achieve convergence from 2.1761109375031780e-09 to 2.1761109375131782e-09 seconds.
Warning: Simulation tolerance relaxed to achieve convergence from 2.1761109375131782e-09 to 2.1761109375231784e-09 seconds.
Warning: Simulation tolerance relaxed to achieve convergence from 2.1761109375231784e-09 to 2.1761109375331786e-09 seconds.
Warning: Simulation tolerance relaxed to achieve convergence from 2.1761109375331786e-09 to 2.1761109375431788e-09 seconds.
Warning: Simulation tolerance relaxed to achieve convergence from 2.1761109375431788e-09 to 2.1761109375531790e-09 seconds.
Warning: Simulation tolerance relaxed to achieve convergence from 2.1761109375531790e-09 to 2.1761109375631792e-09 seconds.
Warning: Simulation tolerance relaxed to achieve convergence from 2.1761109375631792e-09 to 2.1761109375731794e-09 seconds.
Warning: Simulation tolerance relaxed to achieve convergence from 2.1761109375731794e-09 to 2.1761109375831796e-09 seconds.
Warning: Simulation tolerance relaxed to achieve convergence from 2.1761109375831796e-09 to 2.1761109375931798e-09 seconds.
Warning: Simulation tolerance relaxed to achieve convergence from 2.1761109375931798e-09 to 2.1761109376031800e-09 seconds.
Warning: Simulation tolerance relaxed to achieve convergence from 2.1761109376031800e-09 to 2.1761109376131802e-09 seconds.
Warning: Simulation tolerance relaxed to achieve convergence from 2.1761109376131802e-09 to 2.1761109376231804e-09 seconds.
Warning: Simulation tolerance relaxed to achieve convergence from 2.1761109376231804e-09 to 2.1761109376331806e-09 seconds.
Warning: Simulation tolerance relaxed to achieve convergence from 2.1761109376331806e-09 to 2.1761109376431808e-09 seconds.
Warning: Simulation tolerance relaxed to achieve convergence from 2.1761109376431808e-09 to 2.1761109376531810e-09 seconds.
Warning: Simulation tolerance relaxed to achieve convergence from 2.1761109376531810e-09 to 2.1761109376631812e-09 seconds.
Warning: Simulation tolerance relaxed to achieve convergence from 2.1761109376631812e-09 to 2.1761109376731814e-09 seconds.
Warning: Simulation tolerance relaxed to achieve convergence from 2.1761109376731814e-09 to 2.1761109376831816e-09 seconds.
Warning: Simulation tolerance relaxed to achieve convergence from 2.1761109376831816e-09 to 2.1761109376931818e-09 seconds.
Warning: Simulation tolerance relaxed to achieve convergence from 2.1761109376931818e-09 to 2.1761109377031820e-09 seconds.
Warning: Simulation tolerance relaxed to achieve convergence from 2.1761109377031820e-09 to 2.1761109377131822e-09 seconds.
Warning: Simulation tolerance relaxed to achieve convergence from 2.1761109377131822e-09 to 2.1761109377231824e-09 seconds.
Warning: Simulation tolerance relaxed to achieve convergence from 2.1761109377231824e-09 to 2.1761109377331826e-09 seconds.
Warning: Simulation tolerance relaxed to achieve convergence from 2.1761109377331826e-09 to 2.1761109377431828e-09 seconds.
Warning: Simulation tolerance relaxed to achieve convergence from 2.1761109377431828e-09 to 2.1761109377531830e-09 seconds.
Warning: Simulation tolerance relaxed to achieve convergence from 2.1761109377531830e-09 to 2.1761109377631832e-09 seconds.
Warning: Simulation tolerance relaxed to achieve convergence from 2.1761109377631832e-09 to 2.1761109377731834e-09 seconds.
Warning: Simulation tolerance relaxed to achieve convergence from 2.1761109377731834e-09 to 2.1761109377831836e-09 seconds.
Warning: Simulation tolerance relaxed to achieve convergence from 2.1761109377931838e-09 to 2.1761109378031840e-09 seconds.
Warning: Simulation tolerance relaxed to achieve convergence from 2.1761109378031840e-09 to 2.1761109378131842e-09 seconds.
Warning: Simulation tolerance relaxed to achieve convergence from 2.1761109378131842e-09 to 2.1761109378231844e-09 seconds.
Warning: Simulation tolerance relaxed to achieve convergence from 2.1761109378231844e-09 to 2.1761109378331846e-09 seconds.
Warning: Simulation tolerance relaxed to achieve convergence from 2.1761109378331846e-09 to 2.1761109378431848e-09 seconds.
Warning: Simulation tolerance relaxed to achieve convergence from 2.1761109378431848e-09 to 2.1761109378531850e-09 seconds.
Warning: Simulation tolerance relaxed to achieve convergence from 2.1761109378531850e-09 to 2.1761109378631852e-09 seconds.
Warning: Simulation tolerance relaxed to achieve convergence from 2.1761109378631852e-09 to 2.1761109378731854e-09 seconds.
Warning: Simulation tolerance relaxed to achieve convergence from 2.1761109378731854e-09 to 2.1761109378831856e-09 seconds.
Warning: Simulation tolerance relaxed to achieve convergence from 2.1761109378831856e-09 to 2.1761109378931858e-09 seconds.
Warning: Simulation tolerance relaxed to achieve convergence from 2.1761109378931858e-09 to 2.1761109379031860e-09 seconds.
Warning: Simulation tolerance relaxed to achieve convergence from 2.1761109379031860e-09 to 2.1761109379131862e-09 seconds.
Warning: Simulation tolerance relaxed to achieve convergence from 2.1761109379131862e-09 to 2.1761109379231864e-09 seconds.
Warning: Simulation tolerance relaxed to achieve convergence from 2.1761109379231864e-09 to 2.1761109379331866e-09 seconds.
Warning: Simulation tolerance relaxed to achieve convergence from 2.1761109379331866e-09 to 2.1761109379431868e-09 seconds.
Warning: Simulation tolerance relaxed to achieve convergence from 2.1761109379431868e-09 to 2.1761109379531870e-09 seconds.
Warning: Simulation tolerance relaxed to achieve convergence from 2.1761109379531870e-09 to 2.1761109379631872e-09 seconds.
Warning: Simulation tolerance relaxed to achieve convergence from 2.1761109379631872e-09 to 2.1761109379731874e-09 seconds.
Warning: Simulation tolerance relaxed to achieve convergence from 2.1761109379731874e-09 to 2.1761109379831876e-09 seconds.
Warning: Simulation tolerance relaxed to achieve convergence from 2.1761109379831876e-09 to 2.1761109379931878e-09 seconds.
Warning: Simulation tolerance relaxed to achieve convergence from 2.1761109379931878e-09 to 2.1761109380031880e-09 seconds.
Warning: Simulation tolerance relaxed to achieve convergence from 2.1761109380031880e-09 to 2.1761109380131882e-09 seconds.
Warning: Simulation tolerance relaxed to achieve convergence from 2.1761109380131882e-09 to 2.1761109380231884e-09 seconds.
Warning: Simulation tolerance relaxed to achieve convergence from 2.1761109380231884e-09 to 2.1761109380331886e-09 seconds.
Warning: Simulation tolerance relaxed to achieve convergence from 2.1761109380331886e-09 to 2.1761109380431888e-09 seconds.
Warning: Simulation tolerance relaxed to achieve convergence from 2.1761109380431888e-09 to 2.1761109380531890e-09 seconds.
Warning: Simulation tolerance relaxed to achieve convergence from 2.1761109380531890e-09 to 2.1761109380631892e-09 seconds.
Warning: Simulation tolerance relaxed to achieve convergence from 2.1761109380631892e-09 to 2.1761109380731894e-09 seconds.
Warning: Simulation tolerance relaxed to achieve convergence from 2.1761109380731894e-09 to 2.1761109380831896e-09 seconds.
Warning: Simulation tolerance relaxed to achieve convergence from 2.1761109380831896e-09 to 2.1761109380931898e-09 seconds.
Warning: Simulation tolerance relaxed to achieve convergence from 2.1761109380931898e-09 to 2.1761109381031900e-09 seconds.
Warning: Simulation tolerance relaxed to achieve convergence from 2.1761109381031900e-09 to 2.1761109381131902e-09 seconds.
Warning: Simulation tolerance relaxed to achieve convergence from 2.1761109381131902e-09 to 2.1761109381231904e-09 seconds.
Warning: Simulation tolerance relaxed to achieve convergence from 2.1761109381231904e-09 to 2.1761109381331906e-09 seconds.
Warning: Simulation tolerance relaxed to achieve convergence from 2.1761109381331906e-09 to 2.1761109381431908e-09 seconds.
Warning: Simulation tolerance relaxed to achieve convergence from 2.1761109381431908e-09 to 2.1761109381531910e-09 seconds.
Warning: Simulation tolerance relaxed to achieve convergence from 2.1761109381531910e-09 to 2.1761109381631912e-09 seconds.
Warning: Simulation tolerance relaxed to achieve convergence from 2.1761109381731914e-09 to 2.1761109381831916e-09 seconds.
Warning: Simulation tolerance relaxed to achieve convergence from 2.1761109381831916e-09 to 2.1761109381931918e-09 seconds.
Warning: Simulation tolerance relaxed to achieve convergence from 2.1761109381931918e-09 to 2.1761109382031920e-09 seconds.
Warning: Simulation tolerance relaxed to achieve convergence from 2.1761109382031920e-09 to 2.1761109382131922e-09 seconds.
Warning: Simulation tolerance relaxed to achieve convergence from 2.1761109382131922e-09 to 2.1761109382231924e-09 seconds.
Warning: Simulation tolerance relaxed to achieve convergence from 2.1761109382231924e-09 to 2.1761109382331926e-09 seconds.
Warning: Simulation tolerance relaxed to achieve convergence from 2.1761109382331926e-09 to 2.1761109382431928e-09 seconds.
Warning: Simulation tolerance relaxed to achieve convergence from 2.1761109382431928e-09 to 2.1761109382531930e-09 seconds.
Warning: Simulation tolerance relaxed to achieve convergence from 2.1761109382531930e-09 to 2.1761109382631932e-09 seconds.
Warning: Simulation tolerance relaxed to achieve convergence from 2.1761109382631932e-09 to 2.1761109382731934e-09 seconds.
Warning: Simulation tolerance relaxed to achieve convergence from 2.1761109382731934e-09 to 2.1761109382831936e-09 seconds.
Warning: Simulation tolerance relaxed to achieve convergence from 2.1761109382831936e-09 to 2.1761109382931938e-09 seconds.
Warning: Simulation tolerance relaxed to achieve convergence from 2.1761109382931938e-09 to 2.1761109383031940e-09 seconds.
Warning: Simulation tolerance relaxed to achieve convergence from 2.1761109383031940e-09 to 2.1761109383131942e-09 seconds.
Warning: Simulation tolerance relaxed to achieve convergence from 2.1761109383131942e-09 to 2.1761109383231944e-09 seconds.
Warning: Simulation tolerance relaxed to achieve convergence from 2.1761109383231944e-09 to 2.1761109383331946e-09 seconds.
Warning: Simulation tolerance relaxed to achieve convergence from 2.1761109383331946e-09 to 2.1761109383431948e-09 seconds.
Warning: Simulation tolerance relaxed to achieve convergence from 2.1761109383431948e-09 to 2.1761109383531950e-09 seconds.
Warning: Simulation tolerance relaxed to achieve convergence from 2.1761109383531950e-09 to 2.1761109383631952e-09 seconds.
Warning: Simulation tolerance relaxed to achieve convergence from 2.1761109383631952e-09 to 2.1761109383731954e-09 seconds.
Warning: Simulation tolerance relaxed to achieve convergence from 2.1761109383731954e-09 to 2.1761109383831956e-09 seconds.
Warning: Simulation tolerance relaxed to achieve convergence from 2.1761109383831956e-09 to 2.1761109383931958e-09 seconds.
Warning: Simulation tolerance relaxed to achieve convergence from 2.1761109383931958e-09 to 2.1761109384031960e-09 seconds.
Warning: Simulation tolerance relaxed to achieve convergence from 2.1761109384031960e-09 to 2.1761109384131962e-09 seconds.
Warning: Simulation tolerance relaxed to achieve convergence from 2.1761109384131962e-09 to 2.1761109384231964e-09 seconds.
Warning: Simulation tolerance relaxed to achieve convergence from 2.1761109384231964e-09 to 2.1761109384331966e-09 seconds.
Warning: Simulation tolerance relaxed to achieve convergence from 2.1761109384331966e-09 to 2.1761109384431968e-09 seconds.
Warning: Simulation tolerance relaxed to achieve convergence from 2.1761109384431968e-09 to 2.1761109384531970e-09 seconds.
Warning: Simulation tolerance relaxed to achieve convergence from 2.1761109384531970e-09 to 2.1761109384631972e-09 seconds.
Warning: Simulation tolerance relaxed to achieve convergence from 2.1761109384631972e-09 to 2.1761109384731974e-09 seconds.
Warning: Simulation tolerance relaxed to achieve convergence from 2.1761109384731974e-09 to 2.1761109384831976e-09 seconds.
Warning: Simulation tolerance relaxed to achieve convergence from 2.1761109384831976e-09 to 2.1761109384931978e-09 seconds.
Warning: Simulation tolerance relaxed to achieve convergence from 2.1761109384931978e-09 to 2.1761109385031980e-09 seconds.
Warning: Simulation tolerance relaxed to achieve convergence from 2.1761109385031980e-09 to 2.1761109385131982e-09 seconds.
Warning: Simulation tolerance relaxed to achieve convergence from 2.1761109385131982e-09 to 2.1761109385231984e-09 seconds.
Warning: Simulation tolerance relaxed to achieve convergence from 2.1761109385331986e-09 to 2.1761109385431988e-09 seconds.
Warning: Simulation tolerance relaxed to achieve convergence from 2.1761109385431988e-09 to 2.1761109385531990e-09 seconds.
Warning: Simulation tolerance relaxed to achieve convergence from 2.1761109385531990e-09 to 2.1761109385631992e-09 seconds.
Warning: Simulation tolerance relaxed to achieve convergence from 2.1761109385631992e-09 to 2.1761109385731994e-09 seconds.
Warning: Simulation tolerance relaxed to achieve convergence from 2.1761109385731994e-09 to 2.1761109385831996e-09 seconds.
Warning: Simulation tolerance relaxed to achieve convergence from 2.1761109385831996e-09 to 2.1761109385931998e-09 seconds.
Warning: Simulation tolerance relaxed to achieve convergence from 2.1761109385931998e-09 to 2.1761109386032000e-09 seconds.
Warning: Simulation tolerance relaxed to achieve convergence from 2.1761109386032000e-09 to 2.1761109386132002e-09 seconds.
Warning: Simulation tolerance relaxed to achieve convergence from 2.1761109386132002e-09 to 2.1761109386232004e-09 seconds.
Warning: Simulation tolerance relaxed to achieve convergence from 2.1761109386232004e-09 to 2.1761109386332006e-09 seconds.
Warning: Simulation tolerance relaxed to achieve convergence from 2.1761109386332006e-09 to 2.1761109386432008e-09 seconds.
Warning: Simulation tolerance relaxed to achieve convergence from 2.1761109386432008e-09 to 2.1761109386532010e-09 seconds.
Warning: Simulation tolerance relaxed to achieve convergence from 2.1761109386532010e-09 to 2.1761109386632012e-09 seconds.
Warning: Simulation tolerance relaxed to achieve convergence from 2.1761109386632012e-09 to 2.1761109386732014e-09 seconds.
Warning: Simulation tolerance relaxed to achieve convergence from 2.1761109386732014e-09 to 2.1761109386832016e-09 seconds.
Warning: Simulation tolerance relaxed to achieve convergence from 2.1761109386832016e-09 to 2.1761109386932018e-09 seconds.
Warning: Simulation tolerance relaxed to achieve convergence from 2.1761109386932018e-09 to 2.1761109387032020e-09 seconds.
Warning: Simulation tolerance relaxed to achieve convergence from 2.1761109387032020e-09 to 2.1761109387132022e-09 seconds.
Warning: Simulation tolerance relaxed to achieve convergence from 2.1761109387132022e-09 to 2.1761109387232024e-09 seconds.
Warning: Simulation tolerance relaxed to achieve convergence from 2.1761109387232024e-09 to 2.1761109387332026e-09 seconds.
Warning: Simulation tolerance relaxed to achieve convergence from 2.1761109387332026e-09 to 2.1761109387432028e-09 seconds.
Warning: Simulation tolerance relaxed to achieve convergence from 2.1761109387432028e-09 to 2.1761109387532030e-09 seconds.
Warning: Simulation tolerance relaxed to achieve convergence from 2.1761109387532030e-09 to 2.1761109387632032e-09 seconds.
Warning: Simulation tolerance relaxed to achieve convergence from 2.1761109387632032e-09 to 2.1761109387732034e-09 seconds.
Warning: Simulation tolerance relaxed to achieve convergence from 2.1761109387732034e-09 to 2.1761109387832036e-09 seconds.
Warning: Simulation tolerance relaxed to achieve convergence from 2.1761109387832036e-09 to 2.1761109387932038e-09 seconds.
Warning: Simulation tolerance relaxed to achieve convergence from 2.1761109387932038e-09 to 2.1761109388032040e-09 seconds.
Warning: Simulation tolerance relaxed to achieve convergence from 2.1761109388032040e-09 to 2.1761109388132042e-09 seconds.
Warning: Simulation tolerance relaxed to achieve convergence from 2.1761109388132042e-09 to 2.1761109388232044e-09 seconds.
Warning: Simulation tolerance relaxed to achieve convergence from 2.1761109388232044e-09 to 2.1761109388332046e-09 seconds.
Warning: Simulation tolerance relaxed to achieve convergence from 2.1761109388332046e-09 to 2.1761109388432048e-09 seconds.
Warning: Simulation tolerance relaxed to achieve convergence from 2.1761109388432048e-09 to 2.1761109388532050e-09 seconds.
Warning: Simulation tolerance relaxed to achieve convergence from 2.1761109388532050e-09 to 2.1761109388632052e-09 seconds.
Warning: Simulation tolerance relaxed to achieve convergence from 2.1761109388632052e-09 to 2.1761109388732054e-09 seconds.
Warning: Simulation tolerance relaxed to achieve convergence from 2.1761109388732054e-09 to 2.1761109388832056e-09 seconds.
Warning: Simulation tolerance relaxed to achieve convergence from 2.1761109388832056e-09 to 2.1761109388932058e-09 seconds.
Warning: Simulation tolerance relaxed to achieve convergence from 2.1761109388932058e-09 to 2.1761109389032060e-09 seconds.
Warning: Simulation tolerance relaxed to achieve convergence from 2.1761109389032060e-09 to 2.1761109389132062e-09 seconds.
Warning: Simulation tolerance relaxed to achieve convergence from 2.1761109389132062e-09 to 2.1761109389232064e-09 seconds.
Warning: Simulation tolerance relaxed to achieve convergence from 2.1761109389232064e-09 to 2.1761109389332066e-09 seconds.
Warning: Simulation tolerance relaxed to achieve convergence from 2.1761109389332066e-09 to 2.1761109389432068e-09 seconds.
Warning: Simulation tolerance relaxed to achieve convergence from 2.1761109389432068e-09 to 2.1761109389532070e-09 seconds.
Warning: Simulation tolerance relaxed to achieve convergence from 2.1761109389532070e-09 to 2.1761109389632072e-09 seconds.
Warning: Simulation tolerance relaxed to achieve convergence from 2.1761109389632072e-09 to 2.1761109389732074e-09 seconds.
Warning: Simulation tolerance relaxed to achieve convergence from 2.1761109389732074e-09 to 2.1761109389832076e-09 seconds.
Warning: Simulation tolerance relaxed to achieve convergence from 2.1761109389832076e-09 to 2.1761109389932078e-09 seconds.
Warning: Simulation tolerance relaxed to achieve convergence from 2.1761109389932078e-09 to 2.1761109390032080e-09 seconds.
Warning: Simulation tolerance relaxed to achieve convergence from 2.1761109390032080e-09 to 2.1761109390132082e-09 seconds.
Warning: Simulation tolerance relaxed to achieve convergence from 2.1761109390132082e-09 to 2.1761109390232084e-09 seconds.
Warning: Simulation tolerance relaxed to achieve convergence from 2.1761109390232084e-09 to 2.1761109390332086e-09 seconds.
Warning: Simulation tolerance relaxed to achieve convergence from 2.1761109390332086e-09 to 2.1761109390432088e-09 seconds.
Warning: Simulation tolerance relaxed to achieve convergence from 2.1761109390432088e-09 to 2.1761109390532090e-09 seconds.
Warning: Simulation tolerance relaxed to achieve convergence from 2.1761109390532090e-09 to 2.1761109390632092e-09 seconds.
Warning: Simulation tolerance relaxed to achieve convergence from 2.1761109390632092e-09 to 2.1761109390732094e-09 seconds.
Warning: Simulation tolerance relaxed to achieve convergence from 2.1761109390732094e-09 to 2.1761109390832096e-09 seconds.
Warning: Simulation tolerance relaxed to achieve convergence from 2.1761109390832096e-09 to 2.1761109390932098e-09 seconds.
Warning: Simulation tolerance relaxed to achieve convergence from 2.1761109390932098e-09 to 2.1761109391032100e-09 seconds.
Warning: Simulation tolerance relaxed to achieve convergence from 2.1761109391032100e-09 to 2.1761109391132102e-09 seconds.
Warning: Simulation tolerance relaxed to achieve convergence from 2.1761109391132102e-09 to 2.1761109391232104e-09 seconds.
Warning: Simulation tolerance relaxed to achieve convergence from 2.1761109391232104e-09 to 2.1761109391332106e-09 seconds.
Warning: Simulation tolerance relaxed to achieve convergence from 2.1761109391332106e-09 to 2.1761109391432108e-09 seconds.
Warning: Simulation tolerance relaxed to achieve convergence from 2.1761109391432108e-09 to 2.1761109391532110e-09 seconds.
Warning: Simulation tolerance relaxed to achieve convergence from 2.1761109391532110e-09 to 2.1761109391632112e-09 seconds.
Warning: Simulation tolerance relaxed to achieve convergence from 2.1761109391632112e-09 to 2.1761109391732114e-09 seconds.
Warning: Simulation tolerance relaxed to achieve convergence from 2.1761109391732114e-09 to 2.1761109391832116e-09 seconds.
Warning: Simulation tolerance relaxed to achieve convergence from 2.1761109391832116e-09 to 2.1761109391932118e-09 seconds.
Warning: Simulation tolerance relaxed to achieve convergence from 2.1761109391932118e-09 to 2.1761109392032120e-09 seconds.
Warning: Simulation tolerance relaxed to achieve convergence from 2.1761109392032120e-09 to 2.1761109392132122e-09 seconds.
Warning: Simulation tolerance relaxed to achieve convergence from 2.1761109392132122e-09 to 2.1761109392232124e-09 seconds.
Warning: Simulation tolerance relaxed to achieve convergence from 2.1761109392232124e-09 to 2.1761109392332126e-09 seconds.
Warning: Simulation tolerance relaxed to achieve convergence from 2.1761109392332126e-09 to 2.1761109392432128e-09 seconds.
Warning: Simulation tolerance relaxed to achieve convergence from 2.1761109392432128e-09 to 2.1761109392532130e-09 seconds.
Warning: Simulation tolerance relaxed to achieve convergence from 2.1761109392532130e-09 to 2.1761109392632132e-09 seconds.
Warning: Simulation tolerance relaxed to achieve convergence from 2.1761109392632132e-09 to 2.1761109392732134e-09 seconds.
Warning: Simulation tolerance relaxed to achieve convergence from 2.1761109392732134e-09 to 2.1761109392832136e-09 seconds.
Warning: Simulation tolerance relaxed to achieve convergence from 2.1761109392832136e-09 to 2.1761109392932138e-09 seconds.
Warning: Simulation tolerance relaxed to achieve convergence from 2.1761109392932138e-09 to 2.1761109393032140e-09 seconds.
Warning: Simulation tolerance relaxed to achieve convergence from 2.1761109393032140e-09 to 2.1761109393132142e-09 seconds.
Warning: Simulation tolerance relaxed to achieve convergence from 2.1761109393132142e-09 to 2.1761109393232144e-09 seconds.
Warning: Simulation tolerance relaxed to achieve convergence from 2.1761109393232144e-09 to 2.1761109393332146e-09 seconds.
Warning: Simulation tolerance relaxed to achieve convergence from 2.1761109393332146e-09 to 2.1761109393432148e-09 seconds.
Warning: Simulation tolerance relaxed to achieve convergence from 2.1761109393432148e-09 to 2.1761109393532150e-09 seconds.
Warning: Simulation tolerance relaxed to achieve convergence from 2.1761109393532150e-09 to 2.1761109393632152e-09 seconds.
Warning: Simulation tolerance relaxed to achieve convergence from 2.1761109393632152e-09 to 2.1761109393732154e-09 seconds.
Warning: Simulation tolerance relaxed to achieve convergence from 2.1761109393732154e-09 to 2.1761109393832156e-09 seconds.
Warning: Simulation tolerance relaxed to achieve convergence from 2.1761109393832156e-09 to 2.1761109393932158e-09 seconds.
Warning: Simulation tolerance relaxed to achieve convergence from 2.1761109393932158e-09 to 2.1761109394032160e-09 seconds.
Warning: Simulation tolerance relaxed to achieve convergence from 2.1761109394032160e-09 to 2.1761109394132162e-09 seconds.
Warning: Simulation tolerance relaxed to achieve convergence from 2.1761109394132162e-09 to 2.1761109394232164e-09 seconds.
Warning: Simulation tolerance relaxed to achieve convergence from 2.1761109394232164e-09 to 2.1761109394332166e-09 seconds.
Warning: Simulation tolerance relaxed to achieve convergence from 2.1761109394332166e-09 to 2.1761109394432168e-09 seconds.
[...]
Warning: Simulation tolerance relaxed to achieve convergence from 2.1761110533854589e-09 to 2.1761110533954591e-09 seconds.
Warning: Simulation tolerance relaxed to achieve convergence from 2.1761110533954591e-09 to 2.1761110534054593e-09 seconds.
Warning: Simulation tolerance relaxed to achieve convergence from 2.1761110534154595e-09 to 2.1761110534254597e-09 seconds.
Warning: Simulation tolerance relaxed to achieve convergence from 2.1761110534254597e-09 to 2.1761110534354599e-09 seconds.
Warning: Simulation tolerance relaxed to achieve convergence from 2.1761110534354599e-09 to 2.1761110534454601e-09 seconds.
Warning: Simulation tolerance relaxed to achieve convergence from 2.1761110534454601e-09 to 2.1761110534554603e-09 seconds.
Warning: Simulation tolerance relaxed to achieve convergence from 2.1761110534554603e-09 to 2.1761110534654605e-09 seconds.
Warning: Simulation tolerance relaxed to achieve convergence from 2.1761110534654605e-09 to 2.1761110534754607e-09 seconds.
Warning: Simulation tolerance relaxed to achieve convergence from 2.1761110534754607e-09 to 2.1761110534854609e-09 seconds.
Warning: Simulation tolerance relaxed to achieve convergence from 2.1761110534854609e-09 to 2.1761110534954611e-09 seconds.
Warning: Simulation tolerance relaxed to achieve convergence from 2.1761110534954611e-09 to 2.1761110535054613e-09 seconds.
Warning: Simulation tolerance relaxed to achieve convergence from 2.1761110535054613e-09 to 2.1761110535154615e-09 seconds.
Warning: Simulation tolerance relaxed to achieve convergence from 2.1761110535154615e-09 to 2.1761110535254617e-09 seconds.
Warning: Simulation tolerance relaxed to achieve convergence from 2.1761110535254617e-09 to 2.1761110535354619e-09 seconds.
Warning: Simulation tolerance relaxed to achieve convergence from 2.1761110535354619e-09 to 2.1761110535454621e-09 seconds.
Warning: Simulation tolerance relaxed to achieve convergence from 2.1761110535454621e-09 to 2.1761110535554623e-09 seconds.
Warning: Simulation tolerance relaxed to achieve convergence from 2.1761110535554623e-09 to 2.1761110535654625e-09 seconds.
Warning: Simulation tolerance relaxed to achieve convergence from 2.1761110535654625e-09 to 2.1761110535754627e-09 seconds.
Warning: Simulation tolerance relaxed to achieve convergence from 2.1761110535754627e-09 to 2.1761110535854629e-09 seconds.
Warning: Simulation tolerance relaxed to achieve convergence from 2.1761110535854629e-09 to 2.1761110535954631e-09 seconds.
Warning: Simulation tolerance relaxed to achieve convergence from 2.1761110535954631e-09 to 2.1761110536054633e-09 seconds.
Warning: Simulation tolerance relaxed to achieve convergence from 2.1761110536054633e-09 to 2.1761110536154635e-09 seconds.
Warning: Simulation tolerance relaxed to achieve convergence from 2.1761110536154635e-09 to 2.1761110536254637e-09 seconds.
Warning: Simulation tolerance relaxed to achieve convergence from 2.1761110536254637e-09 to 2.1761110536354639e-09 seconds.
Warning: Simulation tolerance relaxed to achieve convergence from 2.1761110536354639e-09 to 2.1761110536454641e-09 seconds.
Warning: Simulation tolerance relaxed to achieve convergence from 2.1761110536454641e-09 to 2.1761110536554643e-09 seconds.
Warning: Simulation tolerance relaxed to achieve convergence from 2.1761110536554643e-09 to 2.1761110536654645e-09 seconds.
Warning: Simulation tolerance relaxed to achieve convergence from 2.1761110536654645e-09 to 2.1761110536754647e-09 seconds.
Warning: Simulation tolerance relaxed to achieve convergence from 2.1761110536754647e-09 to 2.1761110536854649e-09 seconds.
Warning: Simulation tolerance relaxed to achieve convergence from 2.1761110536854649e-09 to 2.1761110536954651e-09 seconds.
Warning: Simulation tolerance relaxed to achieve convergence from 2.1761110536954651e-09 to 2.1761110537054653e-09 seconds.
Warning: Simulation tolerance relaxed to achieve convergence from 2.1761110537054653e-09 to 2.1761110537154655e-09 seconds.
Warning: Simulation tolerance relaxed to achieve convergence from 2.1761110537154655e-09 to 2.1761110537254657e-09 seconds.
Warning: Simulation tolerance relaxed to achieve convergence from 2.1761110537254657e-09 to 2.1761110537354659e-09 seconds.
Warning: Simulation tolerance relaxed to achieve convergence from 2.1761110537354659e-09 to 2.1761110537454661e-09 seconds.
Warning: Simulation tolerance relaxed to achieve convergence from 2.1761110537454661e-09 to 2.1761110537554663e-09 seconds.
Warning: Simulation tolerance relaxed to achieve convergence from 2.1761110537554663e-09 to 2.1761110537654665e-09 seconds.
Warning: Simulation tolerance relaxed to achieve convergence from 2.1761110537654665e-09 to 2.1761110537754667e-09 seconds.
Warning: Simulation tolerance relaxed to achieve convergence from 2.1761110537754667e-09 to 2.1761110537854669e-09 seconds.
Warning: Simulation tolerance relaxed to achieve convergence from 2.1761110537854669e-09 to 2.1761110537954671e-09 seconds.
Warning: Simulation tolerance relaxed to achieve convergence from 2.1761110537954671e-09 to 2.1761110538054673e-09 seconds.
Warning: Simulation tolerance relaxed to achieve convergence from 2.1761110538054673e-09 to 2.1761110538154675e-09 seconds.
Warning: Simulation tolerance relaxed to achieve convergence from 2.1761110538154675e-09 to 2.1761110538254677e-09 seconds.
Warning: Simulation tolerance relaxed to achieve convergence from 2.1761110538254677e-09 to 2.1761110538354679e-09 seconds.
Warning: Simulation tolerance relaxed to achieve convergence from 2.1761110538354679e-09 to 2.1761110538454681e-09 seconds.
Warning: Simulation tolerance relaxed to achieve convergence from 2.1761110538554683e-09 to 2.1761110538654685e-09 seconds.
Warning: Simulation tolerance relaxed to achieve convergence from 2.1761110538654685e-09 to 2.1761110538754687e-09 seconds.
Warning: Simulation tolerance relaxed to achieve convergence from 2.1761110538754687e-09 to 2.1761110538854689e-09 seconds.
Warning: Simulation tolerance relaxed to achieve convergence from 2.1761110538854689e-09 to 2.1761110538954691e-09 seconds.
Warning: Simulation tolerance relaxed to achieve convergence from 2.1761110538954691e-09 to 2.1761110539054693e-09 seconds.
Warning: Simulation tolerance relaxed to achieve convergence from 2.1761110539054693e-09 to 2.1761110539154695e-09 seconds.
Warning: Simulation tolerance relaxed to achieve convergence from 2.1761110539154695e-09 to 2.1761110539254697e-09 seconds.
Warning: Simulation tolerance relaxed to achieve convergence from 2.1761110539254697e-09 to 2.1761110539354699e-09 seconds.
Warning: Simulation tolerance relaxed to achieve convergence from 2.1761110539354699e-09 to 2.1761110539454701e-09 seconds.
Warning: Simulation tolerance relaxed to achieve convergence from 2.1761110539454701e-09 to 2.1761110539554703e-09 seconds.
Warning: Simulation tolerance relaxed to achieve convergence from 2.1761110539554703e-09 to 2.1761110539654705e-09 seconds.
Warning: Simulation tolerance relaxed to achieve convergence from 2.1761110539654705e-09 to 2.1761110539754707e-09 seconds.
Warning: Simulation tolerance relaxed to achieve convergence from 2.1761110539754707e-09 to 2.1761110539854709e-09 seconds.
Warning: Simulation tolerance relaxed to achieve convergence from 2.1761110539854709e-09 to 2.1761110539954711e-09 seconds.
Warning: Simulation tolerance relaxed to achieve convergence from 2.1761110539954711e-09 to 2.1761110540054713e-09 seconds.
Warning: Simulation tolerance relaxed to achieve convergence from 2.1761110540054713e-09 to 2.1761110540154715e-09 seconds.
Warning: Simulation tolerance relaxed to achieve convergence from 2.1761110540154715e-09 to 2.1761110540254717e-09 seconds.
Warning: Simulation tolerance relaxed to achieve convergence from 2.1761110540254717e-09 to 2.1761110540354719e-09 seconds.
Warning: Simulation tolerance relaxed to achieve convergence from 2.1761110540354719e-09 to 2.1761110540454721e-09 seconds.
Warning: Simulation tolerance relaxed to achieve convergence from 2.1761110540454721e-09 to 2.1761110540554723e-09 seconds.
Warning: Simulation tolerance relaxed to achieve convergence from 2.1761110540554723e-09 to 2.1761110540654725e-09 seconds.
Warning: Simulation tolerance relaxed to achieve convergence from 2.1761110540654725e-09 to 2.1761110540754727e-09 seconds.
Warning: Simulation tolerance relaxed to achieve convergence from 2.1761110540754727e-09 to 2.1761110540854729e-09 seconds.
Warning: Simulation tolerance relaxed to achieve convergence from 2.1761110540854729e-09 to 2.1761110540954731e-09 seconds.
Warning: Simulation tolerance relaxed to achieve convergence from 2.1761110540954731e-09 to 2.1761110541054733e-09 seconds.
Warning: Simulation tolerance relaxed to achieve convergence from 2.1761110541054733e-09 to 2.1761110541154735e-09 seconds.
Warning: Simulation tolerance relaxed to achieve convergence from 2.1761110541154735e-09 to 2.1761110541254737e-09 seconds.
Warning: Simulation tolerance relaxed to achieve convergence from 2.1761110541254737e-09 to 2.1761110541354739e-09 seconds.
Warning: Simulation tolerance relaxed to achieve convergence from 2.1761110541354739e-09 to 2.1761110541454741e-09 seconds.
Warning: Simulation tolerance relaxed to achieve convergence from 2.1761110541454741e-09 to 2.1761110541554743e-09 seconds.
Warning: Simulation tolerance relaxed to achieve convergence from 2.1761110541554743e-09 to 2.1761110541654745e-09 seconds.
Warning: Simulation tolerance relaxed to achieve convergence from 2.1761110541654745e-09 to 2.1761110541754747e-09 seconds.
Warning: Simulation tolerance relaxed to achieve convergence from 2.1761110541854749e-09 to 2.1761110541954751e-09 seconds.
Warning: Simulation tolerance relaxed to achieve convergence from 2.1761110542054753e-09 to 2.1761110542154755e-09 seconds.
Warning: Simulation tolerance relaxed to achieve convergence from 2.1761110542254757e-09 to 2.1761110542354759e-09 seconds.
Warning: Simulation tolerance relaxed to achieve convergence from 2.1761110542354759e-09 to 2.1761110542454761e-09 seconds.
Warning: Simulation tolerance relaxed to achieve convergence from 2.1761110542454761e-09 to 2.1761110542554763e-09 seconds.
Warning: Simulation tolerance relaxed to achieve convergence from 2.1761110542554763e-09 to 2.1761110542654765e-09 seconds.
Warning: Simulation tolerance relaxed to achieve convergence from 2.1761110542654765e-09 to 2.1761110542754767e-09 seconds.
Warning: Simulation tolerance relaxed to achieve convergence from 2.1761110542754767e-09 to 2.1761110542854769e-09 seconds.
Warning: Simulation tolerance relaxed to achieve convergence from 2.1761110542854769e-09 to 2.1761110542954771e-09 seconds.
Warning: Simulation tolerance relaxed to achieve convergence from 2.1761110542954771e-09 to 2.1761110543054773e-09 seconds.
Warning: Simulation tolerance relaxed to achieve convergence from 2.1761110543054773e-09 to 2.1761110543154775e-09 seconds.
Warning: Simulation tolerance relaxed to achieve convergence from 2.1761110543154775e-09 to 2.1761110543254777e-09 seconds.
Warning: Simulation tolerance relaxed to achieve convergence from 2.1761110543254777e-09 to 2.1761110543354779e-09 seconds.
Warning: Simulation tolerance relaxed to achieve convergence from 2.1761110543354779e-09 to 2.1761110543454781e-09 seconds.
Warning: Simulation tolerance relaxed to achieve convergence from 2.1761110543454781e-09 to 2.1761110543554783e-09 seconds.
Warning: Simulation tolerance relaxed to achieve convergence from 2.1761110543554783e-09 to 2.1761110543654785e-09 seconds.
Warning: Simulation tolerance relaxed to achieve convergence from 2.1761110543654785e-09 to 2.1761110543754787e-09 seconds.
Warning: Simulation tolerance relaxed to achieve convergence from 2.1761110543754787e-09 to 2.1761110543854789e-09 seconds.
Warning: Simulation tolerance relaxed to achieve convergence from 2.1761110543854789e-09 to 2.1761110543954791e-09 seconds.
Warning: Simulation tolerance relaxed to achieve convergence from 2.1761110543954791e-09 to 2.1761110544054793e-09 seconds.
Warning: Simulation tolerance relaxed to achieve convergence from 2.1761110544054793e-09 to 2.1761110544154795e-09 seconds.
Warning: Simulation tolerance relaxed to achieve convergence from 2.1761110544154795e-09 to 2.1761110544254797e-09 seconds.
Warning: Simulation tolerance relaxed to achieve convergence from 2.1761110544254797e-09 to 2.1761110544354799e-09 seconds.
Warning: Simulation tolerance relaxed to achieve convergence from 2.1761110544354799e-09 to 2.1761110544454801e-09 seconds.
Warning: Simulation tolerance relaxed to achieve convergence from 2.1761110544454801e-09 to 2.1761110544554803e-09 seconds.
Warning: Simulation tolerance relaxed to achieve convergence from 2.1761110544554803e-09 to 2.1761110544654805e-09 seconds.
Warning: Simulation tolerance relaxed to achieve convergence from 2.1761110544654805e-09 to 2.1761110544754807e-09 seconds.
Warning: Simulation tolerance relaxed to achieve convergence from 2.1761110544754807e-09 to 2.1761110544854809e-09 seconds.
Warning: Simulation tolerance relaxed to achieve convergence from 2.1761110544854809e-09 to 2.1761110544954811e-09 seconds.
Warning: Simulation tolerance relaxed to achieve convergence from 2.1761110544954811e-09 to 2.1761110545054813e-09 seconds.
Warning: Simulation tolerance relaxed to achieve convergence from 2.1761110545054813e-09 to 2.1761110545154815e-09 seconds.
Warning: Simulation tolerance relaxed to achieve convergence from 2.1761110545154815e-09 to 2.1761110545254817e-09 seconds.
Warning: Simulation tolerance relaxed to achieve convergence from 2.1761110545354819e-09 to 2.1761110545454821e-09 seconds.
Warning: Simulation tolerance relaxed to achieve convergence from 2.1761110545454821e-09 to 2.1761110545554823e-09 seconds.
Warning: Simulation tolerance relaxed to achieve convergence from 2.1761110545554823e-09 to 2.1761110545654825e-09 seconds.
Warning: Simulation tolerance relaxed to achieve convergence from 2.1761110545654825e-09 to 2.1761110545754827e-09 seconds.
Warning: Simulation tolerance relaxed to achieve convergence from 2.1761110545754827e-09 to 2.1761110545854829e-09 seconds.
Warning: Simulation tolerance relaxed to achieve convergence from 2.1761110545854829e-09 to 2.1761110545954831e-09 seconds.
Warning: Simulation tolerance relaxed to achieve convergence from 2.1761110546154831e-09 to 2.1761110546254833e-09 seconds.
Warning: Simulation tolerance relaxed to achieve convergence from 2.1761110546254833e-09 to 2.1761110546354835e-09 seconds.
Warning: Simulation tolerance relaxed to achieve convergence from 2.1761110546354835e-09 to 2.1761110546454837e-09 seconds.
Warning: Simulation tolerance relaxed to achieve convergence from 2.1761110546454837e-09 to 2.1761110546554839e-09 seconds.
Warning: Simulation tolerance relaxed to achieve convergence from 2.1761110546554839e-09 to 2.1761110546654841e-09 seconds.
Warning: Simulation tolerance relaxed to achieve convergence from 2.1761110546654841e-09 to 2.1761110546754843e-09 seconds.
Warning: Simulation tolerance relaxed to achieve convergence from 2.1761110546754843e-09 to 2.1761110546854845e-09 seconds.
Warning: Simulation tolerance relaxed to achieve convergence from 2.1761110546854845e-09 to 2.1761110546954847e-09 seconds.
Warning: Simulation tolerance relaxed to achieve convergence from 2.1761110546954847e-09 to 2.1761110547054849e-09 seconds.
Warning: Simulation tolerance relaxed to achieve convergence from 2.1761110547054849e-09 to 2.1761110547154851e-09 seconds.
Warning: Simulation tolerance relaxed to achieve convergence from 2.1761110547154851e-09 to 2.1761110547254853e-09 seconds.
Warning: Simulation tolerance relaxed to achieve convergence from 2.1761110547254853e-09 to 2.1761110547354855e-09 seconds.
Warning: Simulation tolerance relaxed to achieve convergence from 2.1761110547354855e-09 to 2.1761110547454857e-09 seconds.
Warning: Simulation tolerance relaxed to achieve convergence from 2.1761110547454857e-09 to 2.1761110547554859e-09 seconds.
Warning: Simulation tolerance relaxed to achieve convergence from 2.1761110547554859e-09 to 2.1761110547654861e-09 seconds.
Warning: Simulation tolerance relaxed to achieve convergence from 2.1761110547654861e-09 to 2.1761110547754863e-09 seconds.
Warning: Simulation tolerance relaxed to achieve convergence from 2.1761110547754863e-09 to 2.1761110547854865e-09 seconds.
Warning: Simulation tolerance relaxed to achieve convergence from 2.1761110547854865e-09 to 2.1761110547954867e-09 seconds.
Warning: Simulation tolerance relaxed to achieve convergence from 2.1761110547954867e-09 to 2.1761110548054869e-09 seconds.
Warning: Simulation tolerance relaxed to achieve convergence from 2.1761110548054869e-09 to 2.1761110548154871e-09 seconds.
Warning: Simulation tolerance relaxed to achieve convergence from 2.1761110548254873e-09 to 2.1761110548354875e-09 seconds.
Warning: Simulation tolerance relaxed to achieve convergence from 2.1761110548354875e-09 to 2.1761110548454877e-09 seconds.
Warning: Simulation tolerance relaxed to achieve convergence from 2.1761110548454877e-09 to 2.1761110548554879e-09 seconds.
Warning: Simulation tolerance relaxed to achieve convergence from 2.1761110548554879e-09 to 2.1761110548654881e-09 seconds.
Warning: Simulation tolerance relaxed to achieve convergence from 2.1761110548654881e-09 to 2.1761110548754883e-09 seconds.
Warning: Simulation tolerance relaxed to achieve convergence from 2.1761110548754883e-09 to 2.1761110548854885e-09 seconds.
Warning: Simulation tolerance relaxed to achieve convergence from 2.1761110548854885e-09 to 2.1761110548954887e-09 seconds.
Warning: Simulation tolerance relaxed to achieve convergence from 2.1761110548954887e-09 to 2.1761110549054889e-09 seconds.
Warning: Simulation tolerance relaxed to achieve convergence from 2.1761110549054889e-09 to 2.1761110549154891e-09 seconds.
Warning: Simulation tolerance relaxed to achieve convergence from 2.1761110549154891e-09 to 2.1761110549254893e-09 seconds.
Warning: Simulation tolerance relaxed to achieve convergence from 2.1761110549254893e-09 to 2.1761110549354895e-09 seconds.
Warning: Simulation tolerance relaxed to achieve convergence from 2.1761110549354895e-09 to 2.1761110549454897e-09 seconds.
Warning: Simulation tolerance relaxed to achieve convergence from 2.1761110549454897e-09 to 2.1761110549554899e-09 seconds.
Warning: Simulation tolerance relaxed to achieve convergence from 2.1761110549554899e-09 to 2.1761110549654901e-09 seconds.
Warning: Simulation tolerance relaxed to achieve convergence from 2.1761110549654901e-09 to 2.1761110549754903e-09 seconds.
Warning: Simulation tolerance relaxed to achieve convergence from 2.1761110549754903e-09 to 2.1761110549854905e-09 seconds.
Warning: Simulation tolerance relaxed to achieve convergence from 2.1761110549854905e-09 to 2.1761110549954907e-09 seconds.
Warning: Simulation tolerance relaxed to achieve convergence from 2.1761110549954907e-09 to 2.1761110550054909e-09 seconds.
Warning: Simulation tolerance relaxed to achieve convergence from 2.1761110550054909e-09 to 2.1761110550154911e-09 seconds.
Warning: Simulation tolerance relaxed to achieve convergence from 2.1761110550154911e-09 to 2.1761110550254913e-09 seconds.
Warning: Simulation tolerance relaxed to achieve convergence from 2.1761110550254913e-09 to 2.1761110550354915e-09 seconds.
Warning: Simulation tolerance relaxed to achieve convergence from 2.1761110550354915e-09 to 2.1761110550454917e-09 seconds.
Warning: Simulation tolerance relaxed to achieve convergence from 2.1761110550454917e-09 to 2.1761110550554919e-09 seconds.
Warning: Simulation tolerance relaxed to achieve convergence from 2.1761110550554919e-09 to 2.1761110550554919e-09 seconds.

Simulation stopped by user.
Total elapsed time: 41.323 seconds.

Files loaded:
Z:\home\reverseflux\git\soil-moisture-sensor\ltspice_simulation\mosfet_differential_oscillator_sim.net
Z:\home\reverseflux\git\soil-moisture-sensor\ltspice_simulation\models\NX3008NBKS.lib

